CHEMBL455357
     RDKit          2D

 34 38  0  0  0  0  0  0  0  0999 V2000
    7.0078  -23.5650    0.0000 C   0  0  0  0  0  0  0  0  0  0  0  0
    7.0078  -24.3899    0.0000 C   0  0  0  0  0  0  0  0  0  0  0  0
    7.7198  -24.7982    0.0000 C   0  0  0  0  0  0  0  0  0  0  0  0
    7.7198  -23.1483    0.0000 C   0  0  0  0  0  0  0  0  0  0  0  0
    8.4318  -23.5650    0.0000 C   0  0  0  0  0  0  0  0  0  0  0  0
    8.4283  -24.3899    0.0000 C   0  0  0  0  0  0  0  0  0  0  0  0
    9.1369  -24.8031    0.0000 C   0  0  0  0  0  0  0  0  0  0  0  0
    9.8537  -24.3959    0.0000 C   0  0  0  0  0  0  0  0  0  0  0  0
    9.1439  -23.1532    0.0000 C   0  0  0  0  0  0  0  0  0  0  0  0
    9.8573  -23.5759    0.0000 C   0  0  0  0  0  0  0  0  0  0  0  0
    9.8743  -21.9207    0.0000 C   0  0  0  0  0  0  0  0  0  0  0  0
    9.1493  -22.3265    0.0000 C   0  0  0  0  0  0  0  0  0  0  0  0
   10.5875  -22.3433    0.0000 C   0  0  0  0  0  0  0  0  0  0  0  0
   10.5740  -23.1734    0.0000 C   0  0  0  0  0  0  0  0  0  0  0  0
   11.2823  -23.5979    0.0000 C   0  0  0  0  0  0  0  0  0  0  0  0
   12.0085  -23.1968    0.0000 C   0  0  0  0  0  0  0  0  0  0  0  0
   11.3094  -21.9376    0.0000 C   0  0  0  0  0  0  0  0  0  0  0  0
   12.0232  -22.3702    0.0000 C   0  0  0  0  0  0  0  0  0  0  0  0
   12.7507  -21.9704    0.0000 C   0  0  0  0  0  0  0  0  0  0  0  0
   12.7707  -21.1365    0.0000 C   0  0  0  0  0  0  0  0  0  0  0  0
   12.0568  -20.7040    0.0000 C   0  0  0  0  0  0  0  0  0  0  0  0
   11.3230  -21.1052    0.0000 C   0  0  0  0  0  0  0  0  0  0  0  0
    7.2995  -25.5106    0.0000 C   0  0  0  0  0  0  0  0  0  0  0  0
    8.1244  -25.5106    0.0000 C   0  0  0  0  0  0  0  0  0  0  0  0
    6.2940  -24.8034    0.0000 O   0  0  0  0  0  0  0  0  0  0  0  0
    8.4244  -22.7400    0.0000 C   0  0  0  0  0  0  0  0  0  0  0  0
    9.8493  -22.7483    0.0000 C   0  0  0  0  0  0  0  0  0  0  0  0
   10.5659  -23.9982    0.0000 C   0  0  0  0  0  0  0  0  0  0  0  0
   12.7324  -22.7816    0.0000 C   0  0  0  0  0  0  0  0  0  0  0  0
   10.6168  -20.6788    0.0000 C   0  0  0  0  0  0  0  0  0  0  0  0
   12.0751  -19.8792    0.0000 C   0  0  0  0  0  0  0  0  0  0  0  0
    8.4202  -25.2106    0.0000 H   0  0  0  0  0  0  0  0  0  0  0  0
    9.1368  -23.9774    0.0000 H   0  0  0  0  0  0  0  0  0  0  0  0
   11.3034  -22.7608    0.0000 H   0  0  0  0  0  0  0  0  0  0  0  0
 14 15  1  0
 15 16  1  0
 16 18  1  0
 17 18  1  0
  6  7  1  0
  7  8  1  0
  8 10  1  0
  9 10  1  0
  3  6  1  0
  5  4  1  0
 17 22  1  0
 18 19  1  0
 19 20  1  0
 20 21  1  0
 21 22  1  0
  5  6  1  0
  3 23  1  0
  3 24  1  0
  9 12  1  0
  2 25  1  1
 10 14  1  0
  5 26  1  1
 13 11  2  0
 10 27  1  1
 11 12  1  0
 14 28  1  6
 13 14  1  0
 18 29  1  1
  1  2  1  0
 22 30  1  1
  1  4  1  0
 21 31  1  6
  2  3  1  0
  6 32  1  6
  5  9  1  0
  9 33  1  6
 13 17  1  0
 17 34  1  1
M  END
> <chembl_id>
CHEMBL455357

> <chembl_pref_name>
None

$$$$
CHEMBL1347385
     RDKit          2D

 30 34  0  0  0  0  0  0  0  0999 V2000
   -0.8202    1.6766    0.0000 S   0  0  0  0  0  0  0  0  0  0  0  0
   -1.6209    0.4436    0.0000 O   0  0  0  0  0  0  0  0  0  0  0  0
   -3.6609   -2.0360    0.0000 O   0  0  0  0  0  0  0  0  0  0  0  0
   -3.9644    0.8522    0.0000 O   0  0  0  0  0  0  0  0  0  0  0  0
   -4.8034   -1.1108    0.0000 N   0  0  0  0  0  0  0  0  0  0  0  0
   -4.8896   -0.2903    0.0000 N   0  0  0  0  0  0  0  0  0  0  0  0
   -3.5839   -0.5679    0.0000 C   0  0  0  0  0  0  0  0  0  0  0  0
   -3.9964   -1.2823    0.0000 C   0  0  0  0  0  0  0  0  0  0  0  0
   -4.1360    0.0452    0.0000 C   0  0  0  0  0  0  0  0  0  0  0  0
   -5.4165   -1.6628    0.0000 C   0  0  0  0  0  0  0  0  0  0  0  0
   -2.7634   -0.4816    0.0000 C   0  0  0  0  0  0  0  0  0  0  0  0
   -2.4279    0.2720    0.0000 C   0  0  0  0  0  0  0  0  0  0  0  0
   -1.5347    1.2641    0.0000 C   0  0  0  0  0  0  0  0  0  0  0  0
   -0.8202    2.5016    0.0000 C   0  0  0  0  0  0  0  0  0  0  0  0
   -0.1057    2.9141    0.0000 C   0  0  0  0  0  0  0  0  0  0  0  0
   -0.1057    3.7391    0.0000 C   0  0  0  0  0  0  0  0  0  0  0  0
   -2.8404    0.9865    0.0000 C   0  0  0  0  0  0  0  0  0  0  0  0
   -2.2883    1.5996    0.0000 C   0  0  0  0  0  0  0  0  0  0  0  0
   -5.2450   -2.4698    0.0000 C   0  0  0  0  0  0  0  0  0  0  0  0
   -6.2011   -1.4079    0.0000 C   0  0  0  0  0  0  0  0  0  0  0  0
   -1.5347    2.9141    0.0000 C   0  0  0  0  0  0  0  0  0  0  0  0
    0.6087    2.5016    0.0000 C   0  0  0  0  0  0  0  0  0  0  0  0
   -0.8202    4.1516    0.0000 C   0  0  0  0  0  0  0  0  0  0  0  0
    0.6087    4.1516    0.0000 C   0  0  0  0  0  0  0  0  0  0  0  0
   -1.5347    3.7391    0.0000 C   0  0  0  0  0  0  0  0  0  0  0  0
   -5.8581   -3.0218    0.0000 C   0  0  0  0  0  0  0  0  0  0  0  0
   -6.8142   -1.9599    0.0000 C   0  0  0  0  0  0  0  0  0  0  0  0
    1.3232    2.9141    0.0000 C   0  0  0  0  0  0  0  0  0  0  0  0
    1.3232    3.7391    0.0000 C   0  0  0  0  0  0  0  0  0  0  0  0
   -6.6427   -2.7669    0.0000 C   0  0  0  0  0  0  0  0  0  0  0  0
  1 13  1  0
  1 14  1  0
  2 12  1  0
  2 13  1  0
  3  8  2  0
  4  9  2  0
  5  6  1  0
  5  8  1  0
  5 10  1  0
  6  9  1  0
  7  8  1  0
  7  9  1  0
  7 11  2  0
 10 19  2  0
 10 20  1  0
 11 12  1  0
 12 17  2  0
 13 18  2  0
 14 15  1  0
 14 21  2  0
 15 16  1  0
 15 22  2  0
 16 23  1  0
 16 24  2  0
 17 18  1  0
 19 26  1  0
 20 27  2  0
 21 25  1  0
 22 28  1  0
 23 25  2  0
 24 29  1  0
 26 30  2  0
 27 30  1  0
 28 29  2  0
M  END
> <chembl_id>
CHEMBL1347385

> <chembl_pref_name>
None

$$$$
CHEMBL258249
     RDKit          2D

 36 40  0  0  0  0  0  0  0  0999 V2000
   -5.1099   -0.6200    0.0000 C   0  0  0  0  0  0  0  0  0  0  0  0
   -5.1099   -1.4450    0.0000 C   0  0  0  0  0  0  0  0  0  0  0  0
   -4.3994   -1.8552    0.0000 C   0  0  0  0  0  0  0  0  0  0  0  0
   -4.3994   -0.2051    0.0000 C   0  0  0  0  0  0  0  0  0  0  0  0
   -3.6842   -0.6200    0.0000 C   0  0  0  0  0  0  0  0  0  0  0  0
   -3.6832   -1.4450    0.0000 C   0  0  0  0  0  0  0  0  0  0  0  0
   -2.9721   -1.8544    0.0000 C   0  0  0  0  0  0  0  0  0  0  0  0
   -2.2575   -1.4432    0.0000 C   0  0  0  0  0  0  0  0  0  0  0  0
   -2.9742   -0.2043    0.0000 C   0  0  0  0  0  0  0  0  0  0  0  0
   -2.2582   -0.6212    0.0000 C   0  0  0  0  0  0  0  0  0  0  0  0
   -2.2537    1.0331    0.0000 C   0  0  0  0  0  0  0  0  0  0  0  0
   -2.9751    0.6221    0.0000 C   0  0  0  0  0  0  0  0  0  0  0  0
   -1.5376    0.6162    0.0000 C   0  0  0  0  0  0  0  0  0  0  0  0
   -1.5453   -0.2142    0.0000 C   0  0  0  0  0  0  0  0  0  0  0  0
   -0.8340   -0.6337    0.0000 C   0  0  0  0  0  0  0  0  0  0  0  0
   -0.1105   -0.2274    0.0000 C   0  0  0  0  0  0  0  0  0  0  0  0
   -0.8188    1.0270    0.0000 C   0  0  0  0  0  0  0  0  0  0  0  0
   -0.1028    0.6005    0.0000 C   0  0  0  0  0  0  0  0  0  0  0  0
    0.6203    1.0051    0.0000 C   0  0  0  0  0  0  0  0  0  0  0  0
    0.6340    1.8376    0.0000 C   0  0  0  0  0  0  0  0  0  0  0  0
   -0.0818    2.2640    0.0000 C   0  0  0  0  0  0  0  0  0  0  0  0
   -0.8113    1.8579    0.0000 C   0  0  0  0  0  0  0  0  0  0  0  0
   -5.8206   -1.8552    0.0000 O   0  0  0  0  0  0  0  0  0  0  0  0
   -3.6923    0.2005    0.0000 C   0  0  0  0  0  0  0  0  0  0  0  0
   -2.2655    0.2005    0.0000 C   0  0  0  0  0  0  0  0  0  0  0  0
   -0.8251    0.2097    0.0000 H   0  0  0  0  0  0  0  0  0  0  0  0
    0.6017    0.1915    0.0000 C   0  0  0  0  0  0  0  0  0  0  0  0
    0.6019   -0.6221    0.0000 O   0  0  0  0  0  0  0  0  0  0  0  0
    1.3105    0.5983    0.0000 O   0  0  0  0  0  0  0  0  0  0  0  0
   -3.6923   -2.2610    0.0000 H   0  0  0  0  0  0  0  0  0  0  0  0
   -2.9812   -1.0210    0.0000 H   0  0  0  0  0  0  0  0  0  0  0  0
   -1.5453    1.4405    0.0000 C   0  0  0  0  0  0  0  0  0  0  0  0
   -5.1145   -2.2610    0.0000 C   0  0  0  0  0  0  0  0  0  0  0  0
   -4.4080   -2.6758    0.0000 C   0  0  0  0  0  0  0  0  0  0  0  0
   -0.7932    2.6758    0.0000 C   0  0  0  0  0  0  0  0  0  0  0  0
    0.6279    2.6759    0.0000 C   0  0  0  0  0  0  0  0  0  0  0  0
 16 18  1  0
 17 18  1  0
  6  7  1  0
  7  8  1  0
  8 10  1  0
  9 10  1  0
  3  6  1  0
  5  4  1  0
 17 22  1  0
 18 19  1  0
 19 20  1  0
 20 21  1  0
 21 22  1  0
  5  6  1  0
  2 23  1  1
  5 24  1  1
  9 12  1  0
 10 25  1  1
 10 14  1  0
 17 26  1  1
 13 11  1  0
 18 27  1  1
 11 12  1  0
 13 14  1  0
 27 28  1  0
 27 29  2  0
  1  2  1  0
  6 30  1  6
  1  4  1  0
  9 31  1  6
  2  3  1  0
 13 32  1  6
  5  9  1  0
  3 33  1  0
 13 17  1  0
  3 34  1  0
 14 15  2  0
 21 35  1  0
 15 16  1  0
 21 36  1  0
M  END
> <chembl_id>
CHEMBL258249

> <chembl_pref_name>
ALEURITOLIC ACID

$$$$
CHEMBL4071088
     RDKit          2D

 32 35  0  0  0  0  0  0  0  0999 V2000
    1.7347   -9.3557    0.0000 C   0  0  0  0  0  0  0  0  0  0  0  0
    2.1374   -8.6472    0.0000 O   0  0  0  0  0  0  0  0  0  0  0  0
    2.9521   -8.6396    0.0000 C   0  0  0  0  0  0  0  0  0  0  0  0
    3.3589   -7.9316    0.0000 C   0  0  0  0  0  0  0  0  0  0  0  0
    4.1736   -7.9240    0.0000 C   0  0  0  0  0  0  0  0  0  0  0  0
    4.5808   -7.2118    0.0000 C   0  0  0  0  0  0  0  0  0  0  0  0
    4.1646   -6.5105    0.0000 C   0  0  0  0  0  0  0  0  0  0  0  0
    3.3462   -6.5136    0.0000 C   0  0  0  0  0  0  0  0  0  0  0  0
    2.9431   -7.2262    0.0000 C   0  0  0  0  0  0  0  0  0  0  0  0
    4.5680   -5.7976    0.0000 C   0  0  0  0  0  0  0  0  0  0  0  0
    4.0853   -5.1392    0.0000 C   0  0  0  0  0  0  0  0  0  0  0  0
    4.3321   -4.3594    0.0000 C   0  0  0  0  0  0  0  0  0  0  0  0
    3.6681   -3.8860    0.0000 N   0  0  0  0  0  0  0  0  0  0  0  0
    3.0097   -4.3687    0.0000 C   0  0  0  0  0  0  0  0  0  0  0  0
    3.2681   -5.1433    0.0000 C   0  0  0  0  0  0  0  0  0  0  0  0
    2.2300   -4.1219    0.0000 C   0  0  0  0  0  0  0  0  0  0  0  0
    2.0553   -3.3252    0.0000 C   0  0  0  0  0  0  0  0  0  0  0  0
    1.2755   -3.0784    0.0000 C   0  0  0  0  0  0  0  0  0  0  0  0
    0.6705   -3.6283    0.0000 C   0  0  0  0  0  0  0  0  0  0  0  0
    0.8493   -4.4249    0.0000 C   0  0  0  0  0  0  0  0  0  0  0  0
    1.6249   -4.6758    0.0000 C   0  0  0  0  0  0  0  0  0  0  0  0
    3.6640   -3.0688    0.0000 C   0  0  0  0  0  0  0  0  0  0  0  0
    4.3648   -2.6572    0.0000 C   0  0  0  0  0  0  0  0  0  0  0  0
    4.3607   -1.8401    0.0000 C   0  0  0  0  0  0  0  0  0  0  0  0
    3.6516   -1.4345    0.0000 C   0  0  0  0  0  0  0  0  0  0  0  0
    2.9467   -1.8461    0.0000 C   0  0  0  0  0  0  0  0  0  0  0  0
    2.9508   -2.6633    0.0000 C   0  0  0  0  0  0  0  0  0  0  0  0
    3.6475   -0.6173    0.0000 C   0  0  0  0  0  0  0  0  0  0  0  0
    5.0780   -3.0587    0.0000 Br  0  0  0  0  0  0  0  0  0  0  0  0
    5.1068   -4.1052    0.0000 O   0  0  0  0  0  0  0  0  0  0  0  0
    3.3678   -9.3451    0.0000 O   0  0  0  0  0  0  0  0  0  0  0  0
    0.9176   -9.3613    0.0000 C   0  0  0  0  0  0  0  0  0  0  0  0
  1  2  1  0
  2  3  1  0
  3  4  1  0
  4  5  2  0
  5  6  1  0
  6  7  2  0
  7  8  1  0
  8  9  2  0
  4  9  1  0
  7 10  1  0
 10 11  2  0
 11 12  1  0
 12 13  1  0
 13 14  1  0
 14 15  2  0
 11 15  1  0
 14 16  1  0
 16 17  2  0
 17 18  1  0
 18 19  2  0
 19 20  1  0
 20 21  2  0
 16 21  1  0
 13 22  1  0
 22 23  2  0
 23 24  1  0
 24 25  2  0
 25 26  1  0
 26 27  2  0
 22 27  1  0
 25 28  1  0
 23 29  1  0
 12 30  2  0
  3 31  2  0
  1 32  1  0
M  END
> <chembl_id>
CHEMBL4071088

> <chembl_pref_name>
None

$$$$
CHEMBL556501
     RDKit          2D

 23 26  0  0  0  0  0  0  0  0999 V2000
    1.0095   -1.4292    0.0000 C   0  0  0  0  0  0  0  0  0  0  0  0
    0.2950   -1.0167    0.0000 C   0  0  0  0  0  0  0  0  0  0  0  0
   -0.4194   -1.4292    0.0000 C   0  0  0  0  0  0  0  0  0  0  0  0
    1.0095   -2.2542    0.0000 C   0  0  0  0  0  0  0  0  0  0  0  0
    0.2950   -2.6667    0.0000 C   0  0  0  0  0  0  0  0  0  0  0  0
   -0.4194   -2.2542    0.0000 C   0  0  0  0  0  0  0  0  0  0  0  0
   -1.1339   -2.6667    0.0000 O   0  0  0  0  0  0  0  0  0  0  0  0
   -1.1339   -3.4917    0.0000 C   0  0  0  0  0  0  0  0  0  0  0  0
   -0.4194   -3.9042    0.0000 C   0  0  0  0  0  0  0  0  0  0  0  0
    0.2950   -3.4917    0.0000 C   0  0  0  0  0  0  0  0  0  0  0  0
   -1.8484   -3.9042    0.0000 C   0  0  0  0  0  0  0  0  0  0  0  0
   -1.8484   -4.7292    0.0000 C   0  0  0  0  0  0  0  0  0  0  0  0
   -2.5628   -5.1417    0.0000 C   0  0  0  0  0  0  0  0  0  0  0  0
   -2.5628   -3.4917    0.0000 C   0  0  0  0  0  0  0  0  0  0  0  0
   -0.4194   -4.7292    0.0000 O   0  0  0  0  0  0  0  0  0  0  0  0
    1.0095   -3.9042    0.0000 O   0  0  0  0  0  0  0  0  0  0  0  0
    1.7240   -2.6667    0.0000 O   0  0  0  0  0  0  0  0  0  0  0  0
    0.2950   -0.1917    0.0000 O   0  0  0  0  0  0  0  0  0  0  0  0
   -3.2773   -3.9042    0.0000 C   0  0  0  0  0  0  0  0  0  0  0  0
   -3.2773   -4.7292    0.0000 C   0  0  0  0  0  0  0  0  0  0  0  0
   -4.0619   -4.9841    0.0000 O   0  0  0  0  0  0  0  0  0  0  0  0
   -4.5469   -4.3167    0.0000 C   0  0  0  0  0  0  0  0  0  0  0  0
   -4.0619   -3.6492    0.0000 O   0  0  0  0  0  0  0  0  0  0  0  0
  8 11  1  0
 11 12  2  0
  2  3  1  0
 12 13  1  0
 13 20  2  0
  3  6  2  0
 19 14  2  0
 14 11  1  0
  1  2  2  0
  9 15  1  0
  5  4  2  0
 10 16  2  0
  4  1  1  0
  4 17  1  0
  5 10  1  0
  2 18  1  0
 19 20  1  0
  6  7  1  0
  7  8  1  0
  8  9  2  0
  9 10  1  0
  5  6  1  0
 20 21  1  0
 21 22  1  0
 22 23  1  0
 23 19  1  0
M  END
> <chembl_id>
CHEMBL556501

> <chembl_pref_name>
None

$$$$
CHEMBL1544885
     RDKit          2D

 34 38  0  0  0  0  0  0  0  0999 V2000
    1.5869   -0.5089    0.0000 O   0  0  0  0  0  0  0  0  0  0  0  0
   -0.1687   -0.1357    0.0000 O   0  0  0  0  0  0  0  0  0  0  0  0
   -1.4017   -2.4438    0.0000 O   0  0  0  0  0  0  0  0  0  0  0  0
   -1.2961   -0.2380    0.0000 O   0  0  0  0  0  0  0  0  0  0  0  0
    2.6678   -3.2859    0.0000 O   0  0  0  0  0  0  0  0  0  0  0  0
    1.1895   -4.9350    0.0000 O   0  0  0  0  0  0  0  0  0  0  0  0
    1.0601   -1.8814    0.0000 N   0  0  0  0  0  0  0  0  0  0  0  0
    1.8608   -3.1144    0.0000 N   0  0  0  0  0  0  0  0  0  0  0  0
    0.3064   -2.2170    0.0000 C   0  0  0  0  0  0  0  0  0  0  0  0
   -0.2456   -1.6039    0.0000 C   0  0  0  0  0  0  0  0  0  0  0  0
    0.9738   -1.0609    0.0000 C   0  0  0  0  0  0  0  0  0  0  0  0
    0.1669   -0.8894    0.0000 C   0  0  0  0  0  0  0  0  0  0  0  0
    0.1349   -3.0239    0.0000 C   0  0  0  0  0  0  0  0  0  0  0  0
    1.7745   -2.2939    0.0000 C   0  0  0  0  0  0  0  0  0  0  0  0
   -1.0661   -1.6901    0.0000 C   0  0  0  0  0  0  0  0  0  0  0  0
   -1.5510   -1.0227    0.0000 C   0  0  0  0  0  0  0  0  0  0  0  0
    0.7480   -3.5760    0.0000 C   0  0  0  0  0  0  0  0  0  0  0  0
    2.5282   -1.9583    0.0000 C   0  0  0  0  0  0  0  0  0  0  0  0
   -0.6497   -3.2789    0.0000 C   0  0  0  0  0  0  0  0  0  0  0  0
    3.0803   -2.5714    0.0000 C   0  0  0  0  0  0  0  0  0  0  0  0
    0.5764   -4.3829    0.0000 C   0  0  0  0  0  0  0  0  0  0  0  0
   -2.3760   -1.0227    0.0000 C   0  0  0  0  0  0  0  0  0  0  0  0
   -0.8213   -4.0858    0.0000 C   0  0  0  0  0  0  0  0  0  0  0  0
   -1.9635    0.2469    0.0000 C   0  0  0  0  0  0  0  0  0  0  0  0
   -0.2082   -4.6379    0.0000 C   0  0  0  0  0  0  0  0  0  0  0  0
   -2.6310   -0.2380    0.0000 C   0  0  0  0  0  0  0  0  0  0  0  0
    3.9007   -2.4852    0.0000 C   0  0  0  0  0  0  0  0  0  0  0  0
    1.0180   -5.7419    0.0000 C   0  0  0  0  0  0  0  0  0  0  0  0
   -1.9635    1.0719    0.0000 C   0  0  0  0  0  0  0  0  0  0  0  0
    1.6311   -6.2940    0.0000 C   0  0  0  0  0  0  0  0  0  0  0  0
    0.2334   -5.9969    0.0000 C   0  0  0  0  0  0  0  0  0  0  0  0
    1.4596   -7.1009    0.0000 C   0  0  0  0  0  0  0  0  0  0  0  0
    0.0619   -6.8038    0.0000 C   0  0  0  0  0  0  0  0  0  0  0  0
    0.6750   -7.3559    0.0000 C   0  0  0  0  0  0  0  0  0  0  0  0
  1 11  2  0
  2 12  1  0
  3 15  2  0
  4 16  1  0
  4 24  1  0
  5  8  1  0
  5 20  1  0
  6 21  1  0
  6 28  1  0
  7  9  1  0
  7 11  1  0
  7 14  1  0
  8 14  2  0
  9 10  1  0
  9 13  1  0
 10 12  2  0
 10 15  1  0
 11 12  1  0
 13 17  1  0
 13 19  2  0
 14 18  1  0
 15 16  1  0
 16 22  2  0
 17 21  2  0
 18 20  2  0
 19 23  1  0
 20 27  1  0
 21 25  1  0
 22 26  1  0
 23 25  2  0
 24 26  2  0
 24 29  1  0
 28 30  2  0
 28 31  1  0
 30 32  1  0
 31 33  2  0
 32 34  2  0
 33 34  1  0
M  END
> <chembl_id>
CHEMBL1544885

> <chembl_pref_name>
None

$$$$
CHEMBL2398060
     RDKit          2D

 34 37  0  0  0  0  0  0  0  0999 V2000
   79.3319  -13.4845    0.0000 S   0  0  0  0  0  0  0  0  0  0  0  0
   79.3379  -14.3095    0.0000 O   0  0  0  0  0  0  0  0  0  0  0  0
   80.0494  -13.8918    0.0000 O   0  0  0  0  0  0  0  0  0  0  0  0
   73.3337  -13.1059    0.0000 C   0  0  0  0  0  0  0  0  0  0  0  0
   73.3326  -13.9332    0.0000 C   0  0  0  0  0  0  0  0  0  0  0  0
   74.0474  -14.3461    0.0000 C   0  0  0  0  0  0  0  0  0  0  0  0
   74.0456  -12.6931    0.0000 C   0  0  0  0  0  0  0  0  0  0  0  0
   74.7610  -13.1022    0.0000 C   0  0  0  0  0  0  0  0  0  0  0  0
   74.7658  -13.9287    0.0000 C   0  0  0  0  0  0  0  0  0  0  0  0
   75.5533  -14.1795    0.0000 N   0  0  0  0  0  0  0  0  0  0  0  0
   76.0352  -13.5080    0.0000 C   0  0  0  0  0  0  0  0  0  0  0  0
   75.5455  -12.8423    0.0000 C   0  0  0  0  0  0  0  0  0  0  0  0
   75.8128  -14.9626    0.0000 C   0  0  0  0  0  0  0  0  0  0  0  0
   76.8602  -13.5031    0.0000 C   0  0  0  0  0  0  0  0  0  0  0  0
   75.7947  -12.0585    0.0000 C   0  0  0  0  0  0  0  0  0  0  0  0
   76.0450  -11.2724    0.0000 N   0  0  0  0  0  0  0  0  0  0  0  0
   77.2743  -14.2163    0.0000 N   0  0  0  0  0  0  0  0  0  0  0  0
   78.0985  -14.2118    0.0000 C   0  0  0  0  0  0  0  0  0  0  0  0
   78.5076  -13.4944    0.0000 C   0  0  0  0  0  0  0  0  0  0  0  0
   78.0865  -12.7800    0.0000 C   0  0  0  0  0  0  0  0  0  0  0  0
   77.2636  -12.7880    0.0000 C   0  0  0  0  0  0  0  0  0  0  0  0
   79.7399  -12.7710    0.0000 N   0  0  0  0  0  0  0  0  0  0  0  0
   80.5649  -12.7650    0.0000 C   0  0  0  0  0  0  0  0  0  0  0  0
   72.6178  -14.3452    0.0000 O   0  0  0  0  0  0  0  0  0  0  0  0
   71.9036  -13.9321    0.0000 C   0  0  0  0  0  0  0  0  0  0  0  0
   71.1888  -14.3440    0.0000 F   0  0  0  0  0  0  0  0  0  0  0  0
   71.9043  -13.1071    0.0000 F   0  0  0  0  0  0  0  0  0  0  0  0
   80.9826  -13.4765    0.0000 C   0  0  0  0  0  0  0  0  0  0  0  0
   80.9722  -12.0476    0.0000 C   0  0  0  0  0  0  0  0  0  0  0  0
   81.7972  -12.0416    0.0000 F   0  0  0  0  0  0  0  0  0  0  0  0
   81.8075  -13.4705    0.0000 F   0  0  0  0  0  0  0  0  0  0  0  0
   75.4425  -15.6999    0.0000 C   0  0  0  0  0  0  0  0  0  0  0  0
   76.1798  -16.0701    0.0000 C   0  0  0  0  0  0  0  0  0  0  0  0
   76.5500  -15.3329    0.0000 C   0  0  0  0  0  0  0  0  0  0  0  0
  2  1  2  0
  1  3  2  0
  4  5  2  0
  5  6  1  0
  6  9  2  0
  8  7  2  0
  7  4  1  0
  8  9  1  0
  9 10  1  0
 10 11  1  0
 11 12  2  0
 12  8  1  0
 10 13  1  0
 11 14  1  0
 15 16  3  0
 12 15  1  0
 14 17  2  0
 17 18  1  0
 18 19  2  0
 19 20  1  0
 20 21  2  0
 21 14  1  0
 19  1  1  0
  1 22  1  0
 22 23  1  0
  5 24  1  0
 24 25  1  0
 25 26  1  0
 25 27  1  0
 23 28  1  0
 23 29  1  0
 29 30  1  0
 28 31  1  0
 13 32  1  0
 32 33  1  0
 33 34  1  0
 34 13  1  0
M  END
> <chembl_id>
CHEMBL2398060

> <chembl_pref_name>
None

$$$$
CHEMBL1254525
     RDKit          2D

 33 36  0  0  0  0  0  0  0  0999 V2000
    6.8848   -5.9917    0.0000 C   0  0  0  0  0  0  0  0  0  0  0  0
    6.0351   -6.0136    0.0000 C   0  0  0  0  0  0  0  0  0  0  0  0
    5.5585   -6.6622    0.0000 C   0  0  0  0  0  0  0  0  0  0  0  0
    7.4062   -6.6382    0.0000 C   0  0  0  0  0  0  0  0  0  0  0  0
    7.2175   -7.4365    0.0000 C   0  0  0  0  0  0  0  0  0  0  0  0
    6.4426   -7.8024    0.0000 C   0  0  0  0  0  0  0  0  0  0  0  0
    5.7352   -7.4527    0.0000 C   0  0  0  0  0  0  0  0  0  0  0  0
    5.6530   -5.2824    0.0000 O   0  0  0  0  0  0  0  0  0  0  0  0
    7.2307   -5.2427    0.0000 O   0  0  0  0  0  0  0  0  0  0  0  0
    8.2312   -6.6368    0.0000 C   0  0  0  0  0  0  0  0  0  0  0  0
    8.6448   -7.3507    0.0000 N   0  0  0  0  0  0  0  0  0  0  0  0
    4.7349   -6.6979    0.0000 C   0  0  0  0  0  0  0  0  0  0  0  0
    4.2912   -6.0024    0.0000 N   0  0  0  0  0  0  0  0  0  0  0  0
    6.4351   -8.6273    0.0000 C   0  0  0  0  0  0  0  0  0  0  0  0
    5.7169   -9.0334    0.0000 N   0  0  0  0  0  0  0  0  0  0  0  0
    8.2302   -8.0662    0.0000 C   0  0  0  0  0  0  0  0  0  0  0  0
    8.6403   -8.7779    0.0000 C   0  0  0  0  0  0  0  0  0  0  0  0
    9.4656   -8.7808    0.0000 N   0  0  0  0  0  0  0  0  0  0  0  0
    9.8792   -8.0660    0.0000 C   0  0  0  0  0  0  0  0  0  0  0  0
    9.4675   -7.3480    0.0000 C   0  0  0  0  0  0  0  0  0  0  0  0
    4.6716   -5.2672    0.0000 C   0  0  0  0  0  0  0  0  0  0  0  0
    4.2315   -4.5737    0.0000 C   0  0  0  0  0  0  0  0  0  0  0  0
    3.4067   -4.6060    0.0000 N   0  0  0  0  0  0  0  0  0  0  0  0
    3.0241   -5.3381    0.0000 C   0  0  0  0  0  0  0  0  0  0  0  0
    3.4662   -6.0377    0.0000 C   0  0  0  0  0  0  0  0  0  0  0  0
    5.0069   -8.6107    0.0000 C   0  0  0  0  0  0  0  0  0  0  0  0
    4.2909   -9.0133    0.0000 C   0  0  0  0  0  0  0  0  0  0  0  0
    4.2791   -9.8385    0.0000 N   0  0  0  0  0  0  0  0  0  0  0  0
    4.9896  -10.2597    0.0000 C   0  0  0  0  0  0  0  0  0  0  0  0
    5.7118   -9.8555    0.0000 C   0  0  0  0  0  0  0  0  0  0  0  0
    9.8764   -9.4963    0.0000 C   0  0  0  0  0  0  0  0  0  0  0  0
    3.5594  -10.2419    0.0000 C   0  0  0  0  0  0  0  0  0  0  0  0
    2.9656   -3.9088    0.0000 C   0  0  0  0  0  0  0  0  0  0  0  0
  2  8  2  0
  1  2  1  0
  1  9  1  0
  2  3  1  0
 11 20  1  0
 16 17  1  0
 17 18  1  0
 18 19  1  0
 19 20  1  0
 13 21  1  0
  4 10  1  0
  1  4  2  0
 10 11  1  0
  5  6  2  0
  3 12  1  0
 13 25  1  0
 21 22  1  0
 22 23  1  0
 23 24  1  0
 24 25  1  0
 15 26  1  0
  6  7  1  0
 12 13  1  0
  7  3  2  0
  6 14  1  0
  4  5  1  0
 15 30  1  0
 26 27  1  0
 27 28  1  0
 28 29  1  0
 29 30  1  0
 14 15  1  0
 18 31  1  0
 11 16  1  0
 28 32  1  0
 23 33  1  0
M  END
> <chembl_id>
CHEMBL1254525

> <chembl_pref_name>
None

$$$$
CHEMBL453805
     RDKit          2D

 20 22  0  0  0  0  0  0  0  0999 V2000
   -0.9125   -0.4792    0.0000 C   0  0  0  0  0  0  0  0  0  0  0  0
    0.1917    0.1333    0.0000 C   0  0  0  0  0  0  0  0  0  0  0  0
    1.2667   -0.5375    0.0000 C   0  0  0  0  0  0  0  0  0  0  0  0
   -1.9875    0.1875    0.0000 O   0  0  0  0  0  0  0  0  0  0  0  0
   -0.9833   -1.7292    0.0000 C   0  0  0  0  0  0  0  0  0  0  0  0
    1.2167   -1.8042    0.0000 C   0  0  0  0  0  0  0  0  0  0  0  0
   -3.1125   -0.4000    0.0000 C   0  0  0  0  0  0  0  0  0  0  0  0
   -2.0875   -2.3250    0.0000 C   0  0  0  0  0  0  0  0  0  0  0  0
    0.1042   -2.3917    0.0000 C   0  0  0  0  0  0  0  0  0  0  0  0
   -3.1583   -1.6750    0.0000 C   0  0  0  0  0  0  0  0  0  0  0  0
    2.4292   -0.1667    0.0000 O   0  0  0  0  0  0  0  0  0  0  0  0
    3.1792   -1.2542    0.0000 C   0  0  0  0  0  0  0  0  0  0  0  0
    2.3750   -2.2667    0.0000 C   0  0  0  0  0  0  0  0  0  0  0  0
   -4.1833    0.2708    0.0000 O   0  0  0  0  0  0  0  0  0  0  0  0
    3.4792    1.2000    0.0000 C   0  0  0  0  0  0  0  0  0  0  0  0
    2.2417    0.9333    0.0000 C   0  0  0  0  0  0  0  0  0  0  0  0
    0.1917    1.4833    0.0000 O   0  0  0  0  0  0  0  0  0  0  0  0
    1.3792    1.9208    0.0000 C   0  0  0  0  0  0  0  0  0  0  0  0
    4.3417    0.2708    0.0000 C   0  0  0  0  0  0  0  0  0  0  0  0
    3.8667    2.4000    0.0000 C   0  0  0  0  0  0  0  0  0  0  0  0
  2  1  2  0
  3  2  1  0
  4  1  1  0
  5  1  1  0
  6  9  1  0
  7  4  1  0
  8  5  1  0
  9  5  2  0
 10  8  2  0
 11  3  1  0
 12 11  1  0
 13  6  1  0
 14  7  2  0
 15 16  2  0
 16 18  1  0
 17  2  1  0
 18 17  1  0
 19 15  1  0
 20 15  1  0
  3  6  2  0
  7 10  1  0
 13 12  2  0
M  END
> <chembl_id>
CHEMBL453805

> <chembl_pref_name>
PENTOSALEN

$$$$
CHEMBL52034
     RDKit          2D

 17 18  0  0  0  0  0  0  0  0999 V2000
    1.3167   -4.4125    0.0000 C   0  0  0  0  0  0  0  0  0  0  0  0
    0.7917   -4.7125    0.0000 N   0  0  0  0  0  0  0  0  0  0  0  0
    0.2792   -4.4125    0.0000 C   0  0  0  0  0  0  0  0  0  0  0  0
    0.2792   -3.8125    0.0000 N   0  0  0  0  0  0  0  0  0  0  0  0
    1.3167   -3.8042    0.0000 C   0  0  0  0  0  0  0  0  0  0  0  0
    0.7917   -3.5042    0.0000 C   0  0  0  0  0  0  0  0  0  0  0  0
    1.8375   -4.7125    0.0000 N   0  0  0  0  0  0  0  0  0  0  0  0
    2.8667   -3.5042    0.0000 C   0  0  0  0  0  0  0  0  0  0  0  0
    2.3500   -3.8125    0.0000 C   0  0  0  0  0  0  0  0  0  0  0  0
    2.3542   -4.4042    0.0000 C   0  0  0  0  0  0  0  0  0  0  0  0
   -0.2458   -4.7125    0.0000 O   0  0  0  0  0  0  0  0  0  0  0  0
    3.3917   -3.8042    0.0000 C   0  0  0  0  0  0  0  0  0  0  0  0
    0.7917   -2.9042    0.0000 O   0  0  0  0  0  0  0  0  0  0  0  0
    3.3917   -4.4042    0.0000 C   0  0  0  0  0  0  0  0  0  0  0  0
    2.8625   -2.9042    0.0000 Cl  0  0  0  0  0  0  0  0  0  0  0  0
    2.8750   -4.7042    0.0000 C   0  0  0  0  0  0  0  0  0  0  0  0
    3.9125   -3.5042    0.0000 Cl  0  0  0  0  0  0  0  0  0  0  0  0
  2  1  2  0
  3  2  1  0
  4  6  1  0
  5  1  1  0
  6  5  2  0
  7  1  1  0
  8  9  2  0
  9 10  1  0
 10  7  1  0
 11  3  1  0
 12 14  2  0
 13  6  1  0
 14 16  1  0
 15  8  1  0
 16 10  2  0
 17 12  1  0
  3  4  2  0
 12  8  1  0
M  END
> <chembl_id>
CHEMBL52034

> <chembl_pref_name>
None

$$$$
CHEMBL186124
     RDKit          2D

 21 23  0  0  0  0  0  0  0  0999 V2000
    0.1792    0.4833    0.0000 N   0  0  0  0  0  0  0  0  0  0  0  0
    1.0792   -0.5042    0.0000 C   0  0  0  0  0  0  0  0  0  0  0  0
    0.2667   -0.3375    0.0000 C   0  0  0  0  0  0  0  0  0  0  0  0
    0.9292    0.8208    0.0000 C   0  0  0  0  0  0  0  0  0  0  0  0
    1.4792    0.2125    0.0000 C   0  0  0  0  0  0  0  0  0  0  0  0
   -0.5333    0.8958    0.0000 C   0  0  0  0  0  0  0  0  0  0  0  0
    1.4167   -1.2542    0.0000 C   0  0  0  0  0  0  0  0  0  0  0  0
    0.9292   -1.9292    0.0000 C   0  0  0  0  0  0  0  0  0  0  0  0
   -1.2458    0.4750    0.0000 C   0  0  0  0  0  0  0  0  0  0  0  0
    0.1042   -1.8417    0.0000 O   0  0  0  0  0  0  0  0  0  0  0  0
   -1.9708    0.8875    0.0000 C   0  0  0  0  0  0  0  0  0  0  0  0
   -2.6833    0.4750    0.0000 C   0  0  0  0  0  0  0  0  0  0  0  0
    1.2667   -2.6792    0.0000 O   0  0  0  0  0  0  0  0  0  0  0  0
   -3.3958    0.8833    0.0000 Cl  0  0  0  0  0  0  0  0  0  0  0  0
    1.1792    1.6000    0.0000 C   0  0  0  0  0  0  0  0  0  0  0  0
    2.2792    0.3833    0.0000 C   0  0  0  0  0  0  0  0  0  0  0  0
   -1.9708   -0.7667    0.0000 C   0  0  0  0  0  0  0  0  0  0  0  0
   -1.2458   -0.3542    0.0000 C   0  0  0  0  0  0  0  0  0  0  0  0
   -2.6833   -0.3542    0.0000 C   0  0  0  0  0  0  0  0  0  0  0  0
    2.5292    1.1708    0.0000 C   0  0  0  0  0  0  0  0  0  0  0  0
    1.9792    1.7833    0.0000 C   0  0  0  0  0  0  0  0  0  0  0  0
  2  3  2  0
  3  1  1  0
  4  1  1  0
  5  4  2  0
  6  1  1  0
  7  2  1  0
  8  7  1  0
  9  6  1  0
 10  8  2  0
 11  9  2  0
 12 11  1  0
 13  8  1  0
 14 12  1  0
 15  4  1  0
 16  5  1  0
 17 18  2  0
 18  9  1  0
 19 17  1  0
 20 21  1  0
 21 15  2  0
  5  2  1  0
 16 20  2  0
 12 19  2  0
M  END
> <chembl_id>
CHEMBL186124

> <chembl_pref_name>
None

$$$$
CHEMBL1446502
     RDKit          2D

 27 29  0  0  0  0  0  0  0  0999 V2000
   -1.9028    2.3312    0.0000 S   0  0  0  0  0  0  0  0  0  0  0  0
   -0.3023   -0.1258    0.0000 S   0  0  0  0  0  0  0  0  0  0  0  0
   -3.1602   -0.1258    0.0000 O   0  0  0  0  0  0  0  0  0  0  0  0
   -4.4789    2.0443    0.0000 O   0  0  0  0  0  0  0  0  0  0  0  0
    1.1266   -0.9508    0.0000 O   0  0  0  0  0  0  0  0  0  0  0  0
   -1.7313   -0.1258    0.0000 N   0  0  0  0  0  0  0  0  0  0  0  0
   -1.0168    1.1117    0.0000 N   0  0  0  0  0  0  0  0  0  0  0  0
    1.8411    0.2867    0.0000 N   0  0  0  0  0  0  0  0  0  0  0  0
   -2.4457    1.1117    0.0000 C   0  0  0  0  0  0  0  0  0  0  0  0
   -1.7313    1.5242    0.0000 C   0  0  0  0  0  0  0  0  0  0  0  0
   -3.0588    1.6638    0.0000 C   0  0  0  0  0  0  0  0  0  0  0  0
   -2.4457    0.2867    0.0000 C   0  0  0  0  0  0  0  0  0  0  0  0
   -1.0168    0.2867    0.0000 C   0  0  0  0  0  0  0  0  0  0  0  0
   -3.8658    1.4923    0.0000 C   0  0  0  0  0  0  0  0  0  0  0  0
   -2.7233    2.4175    0.0000 C   0  0  0  0  0  0  0  0  0  0  0  0
   -1.7313   -0.9508    0.0000 C   0  0  0  0  0  0  0  0  0  0  0  0
   -4.2014    0.7386    0.0000 C   0  0  0  0  0  0  0  0  0  0  0  0
   -5.1934    1.6318    0.0000 C   0  0  0  0  0  0  0  0  0  0  0  0
   -5.0218    0.8248    0.0000 C   0  0  0  0  0  0  0  0  0  0  0  0
    0.4121    0.2867    0.0000 C   0  0  0  0  0  0  0  0  0  0  0  0
   -1.0168   -1.3633    0.0000 C   0  0  0  0  0  0  0  0  0  0  0  0
    1.1266   -0.1258    0.0000 C   0  0  0  0  0  0  0  0  0  0  0  0
   -1.0168   -2.1883    0.0000 C   0  0  0  0  0  0  0  0  0  0  0  0
    2.5556   -0.1258    0.0000 C   0  0  0  0  0  0  0  0  0  0  0  0
    3.2700    0.2867    0.0000 C   0  0  0  0  0  0  0  0  0  0  0  0
    3.9845   -0.1258    0.0000 C   0  0  0  0  0  0  0  0  0  0  0  0
    4.6990    0.2867    0.0000 C   0  0  0  0  0  0  0  0  0  0  0  0
  1 10  1  0
  1 15  1  0
  2 13  1  0
  2 20  1  0
  3 12  2  0
  4 14  1  0
  4 18  1  0
  5 22  2  0
  6 12  1  0
  6 13  1  0
  6 16  1  0
  7 10  1  0
  7 13  2  0
  8 22  1  0
  8 24  1  0
  9 10  2  0
  9 11  1  0
  9 12  1  0
 11 14  1  0
 11 15  2  0
 14 17  2  0
 16 21  1  0
 17 19  1  0
 18 19  2  0
 20 22  1  0
 21 23  2  0
 24 25  1  0
 25 26  1  0
 26 27  1  0
M  END
> <chembl_id>
CHEMBL1446502

> <chembl_pref_name>
None

$$$$
CHEMBL1986090
     RDKit          2D

 22 25  0  0  0  0  0  0  0  0999 V2000
   -0.5067   -3.0231    0.0000 S   0  0  0  0  0  0  0  0  0  0  0  0
    0.2076   -0.9605    0.0000 N   0  0  0  0  0  0  0  0  0  0  0  0
    0.2077   -1.7855    0.0000 N   0  0  0  0  0  0  0  0  0  0  0  0
   -1.2213   -1.7856    0.0000 N   0  0  0  0  0  0  0  0  0  0  0  0
    0.9219    2.7520    0.0000 C   0  0  0  0  0  0  0  0  0  0  0  0
    0.9219    1.9270    0.0000 C   0  0  0  0  0  0  0  0  0  0  0  0
    0.1865    2.3783    0.0000 C   0  0  0  0  0  0  0  0  0  0  0  0
    0.9219    3.4994    0.0000 C   0  0  0  0  0  0  0  0  0  0  0  0
    1.6575    2.3783    0.0000 C   0  0  0  0  0  0  0  0  0  0  0  0
    0.6359    3.1686    0.0000 C   0  0  0  0  0  0  0  0  0  0  0  0
    2.1070    3.1686    0.0000 C   0  0  0  0  0  0  0  0  0  0  0  0
    1.3714    4.2897    0.0000 C   0  0  0  0  0  0  0  0  0  0  0  0
    1.3714    2.7949    0.0000 C   0  0  0  0  0  0  0  0  0  0  0  0
    2.1070    3.9160    0.0000 C   0  0  0  0  0  0  0  0  0  0  0  0
    0.6359    3.9160    0.0000 C   0  0  0  0  0  0  0  0  0  0  0  0
    1.6364    1.5146    0.0000 C   0  0  0  0  0  0  0  0  0  0  0  0
    0.2075    1.5145    0.0000 C   0  0  0  0  0  0  0  0  0  0  0  0
    0.9220    0.2770    0.0000 C   0  0  0  0  0  0  0  0  0  0  0  0
    1.6365    0.6896    0.0000 C   0  0  0  0  0  0  0  0  0  0  0  0
    0.2075    0.6895    0.0000 C   0  0  0  0  0  0  0  0  0  0  0  0
    0.9221   -0.5480    0.0000 C   0  0  0  0  0  0  0  0  0  0  0  0
   -0.5068   -2.1981    0.0000 C   0  0  0  0  0  0  0  0  0  0  0  0
  1 22  2  0
  2  3  1  0
  2 21  2  0
  3 22  1  0
  4 22  1  0
  5  6  1  0
  5  7  1  0
 12 15  1  0
  5  9  1  0
  6 16  2  0
  6 17  1  0
  7 10  1  0
  8 12  1  0
  9 11  1  0
 10 13  1  0
 12 14  1  0
 11 13  1  0
 11 14  1  0
 10 15  1  0
  5  8  1  0
 16 19  1  0
 17 20  2  0
 18 19  2  0
 18 20  1  0
 18 21  1  0
M  END
> <chembl_id>
CHEMBL1986090

> <chembl_pref_name>
None

$$$$
CHEMBL491936
     RDKit          2D

 23 25  0  0  0  0  0  0  0  0999 V2000
   -3.8625  -25.8083    0.0000 C   0  0  0  0  0  0  0  0  0  0  0  0
   -3.0375  -25.8083    0.0000 C   0  0  0  0  0  0  0  0  0  0  0  0
   -2.2125  -25.8083    0.0000 C   0  0  0  0  0  0  0  0  0  0  0  0
   -3.0375  -24.9833    0.0000 C   0  0  0  0  0  0  0  0  0  0  0  0
   -3.0375  -26.6333    0.0000 C   0  0  0  0  0  0  0  0  0  0  0  0
   -1.8019  -26.5251    0.0000 C   0  0  0  0  0  0  0  0  0  0  0  0
   -0.9776  -26.5255    0.0000 C   0  0  0  0  0  0  0  0  0  0  0  0
   -0.5643  -25.8105    0.0000 C   0  0  0  0  0  0  0  0  0  0  0  0
   -0.9812  -25.0936    0.0000 C   0  0  0  0  0  0  0  0  0  0  0  0
   -1.8041  -25.0968    0.0000 C   0  0  0  0  0  0  0  0  0  0  0  0
   -2.3207  -24.5727    0.0000 C   0  0  0  0  0  0  0  0  0  0  0  0
   -2.3204  -23.7485    0.0000 C   0  0  0  0  0  0  0  0  0  0  0  0
   -3.0354  -23.3351    0.0000 C   0  0  0  0  0  0  0  0  0  0  0  0
   -3.7522  -23.7521    0.0000 C   0  0  0  0  0  0  0  0  0  0  0  0
   -3.7490  -24.5749    0.0000 C   0  0  0  0  0  0  0  0  0  0  0  0
   -4.2731  -25.0915    0.0000 C   0  0  0  0  0  0  0  0  0  0  0  0
   -5.0974  -25.0912    0.0000 C   0  0  0  0  0  0  0  0  0  0  0  0
   -5.5107  -25.8062    0.0000 C   0  0  0  0  0  0  0  0  0  0  0  0
   -5.0938  -26.5230    0.0000 C   0  0  0  0  0  0  0  0  0  0  0  0
   -4.2709  -26.5199    0.0000 C   0  0  0  0  0  0  0  0  0  0  0  0
   -6.3393  -25.8073    0.0000 O   0  0  0  0  0  0  0  0  0  0  0  0
   -3.0365  -22.5101    0.0000 O   0  0  0  0  0  0  0  0  0  0  0  0
    0.2607  -25.8094    0.0000 O   0  0  0  0  0  0  0  0  0  0  0  0
  3  6  2  0
 11 12  1  0
  1  2  1  0
 12 13  2  0
  6  7  1  0
 13 14  1  0
  2  4  1  0
 14 15  2  0
 15  4  1  0
  7  8  2  0
  1 16  2  0
 16 17  1  0
  8  9  1  0
 17 18  2  0
  2  5  1  0
 18 19  1  0
  9 10  2  0
 19 20  2  0
 20  1  1  0
 10  3  1  0
 18 21  1  0
  2  3  1  0
 13 22  1  0
  4 11  2  0
  8 23  1  0
M  END
> <chembl_id>
CHEMBL491936

> <chembl_pref_name>
None

$$$$
CHEMBL4520673
     RDKit          2D

 31 35  0  0  0  0  0  0  0  0999 V2000
    3.5535   -2.1049    0.0000 C   0  0  0  0  0  0  0  0  0  0  0  0
    3.5535   -2.9221    0.0000 C   0  0  0  0  0  0  0  0  0  0  0  0
    4.2588   -3.3265    0.0000 C   0  0  0  0  0  0  0  0  0  0  0  0
    4.9641   -2.9221    0.0000 N   0  0  0  0  0  0  0  0  0  0  0  0
    4.9641   -2.1049    0.0000 C   0  0  0  0  0  0  0  0  0  0  0  0
    4.2588   -1.6922    0.0000 N   0  0  0  0  0  0  0  0  0  0  0  0
    5.6730   -1.6984    0.0000 S   0  0  0  0  0  0  0  0  0  0  0  0
    2.8446   -1.6984    0.0000 O   0  0  0  0  0  0  0  0  0  0  0  0
    4.2588   -4.1437    0.0000 O   0  0  0  0  0  0  0  0  0  0  0  0
    2.8464   -3.3317    0.0000 C   0  0  0  0  0  0  0  0  0  0  0  0
    2.8476   -4.1489    0.0000 C   0  0  0  0  0  0  0  0  0  0  0  0
    3.2623   -5.4041    0.0000 N   0  0  0  0  0  0  0  0  0  0  0  0
    3.5136   -4.6266    0.0000 C   0  0  0  0  0  0  0  0  0  0  0  0
    2.4451   -5.4053    0.0000 C   0  0  0  0  0  0  0  0  0  0  0  0
    2.1948   -4.6313    0.0000 C   0  0  0  0  0  0  0  0  0  0  0  0
    1.4009   -4.4623    0.0000 C   0  0  0  0  0  0  0  0  0  0  0  0
    0.8565   -5.0665    0.0000 C   0  0  0  0  0  0  0  0  0  0  0  0
    1.1114   -5.8423    0.0000 C   0  0  0  0  0  0  0  0  0  0  0  0
    1.9047   -6.0076    0.0000 C   0  0  0  0  0  0  0  0  0  0  0  0
    3.6796   -6.1068    0.0000 C   0  0  0  0  0  0  0  0  0  0  0  0
    3.2799   -6.8196    0.0000 O   0  0  0  0  0  0  0  0  0  0  0  0
    4.4967   -6.0966    0.0000 C   0  0  0  0  0  0  0  0  0  0  0  0
    4.9117   -6.7999    0.0000 C   0  0  0  0  0  0  0  0  0  0  0  0
    5.7067   -5.3718    0.0000 C   0  0  0  0  0  0  0  0  0  0  0  0
    4.8917   -5.3852    0.0000 C   0  0  0  0  0  0  0  0  0  0  0  0
    6.1286   -6.0767    0.0000 C   0  0  0  0  0  0  0  0  0  0  0  0
    5.7275   -6.7868    0.0000 C   0  0  0  0  0  0  0  0  0  0  0  0
    6.1419   -7.4871    0.0000 C   0  0  0  0  0  0  0  0  0  0  0  0
    6.9572   -7.4784    0.0000 C   0  0  0  0  0  0  0  0  0  0  0  0
    7.3563   -6.7636    0.0000 C   0  0  0  0  0  0  0  0  0  0  0  0
    6.9396   -6.0663    0.0000 C   0  0  0  0  0  0  0  0  0  0  0  0
  1  2  1  0
  1  6  1  0
  2  3  1  0
  3  4  1  0
  4  5  1  0
  5  6  1  0
  5  7  2  0
  1  8  2  0
  3  9  2  0
  2 10  2  0
 10 11  1  0
 11 15  1  0
 14 12  1  0
 12 13  1  0
 13 11  2  0
 14 15  2  0
 15 16  1  0
 16 17  2  0
 17 18  1  0
 18 19  2  0
 19 14  1  0
 12 20  1  0
 20 21  2  0
 20 22  1  0
 22 23  2  0
 23 27  1  0
 26 24  1  0
 24 25  2  0
 25 22  1  0
 26 27  1  0
 27 28  2  0
 28 29  1  0
 29 30  2  0
 30 31  1  0
 31 26  2  0
M  END
> <chembl_id>
CHEMBL4520673

> <chembl_pref_name>
None

$$$$
CHEMBL406526
     RDKit          2D

 20 22  0  0  0  0  0  0  0  0999 V2000
    7.7615    0.3576    0.0000 C   0  0  0  0  0  0  0  0  0  0  0  0
    7.0506   -0.8830    0.0000 C   0  0  0  0  0  0  0  0  0  0  0  0
    7.0495   -1.7102    0.0000 C   0  0  0  0  0  0  0  0  0  0  0  0
    7.7641   -2.1229    0.0000 C   0  0  0  0  0  0  0  0  0  0  0  0
    7.7623   -0.4704    0.0000 C   0  0  0  0  0  0  0  0  0  0  0  0
    8.4775   -0.8794    0.0000 C   0  0  0  0  0  0  0  0  0  0  0  0
    8.4777   -1.7102    0.0000 C   0  0  0  0  0  0  0  0  0  0  0  0
    9.2680   -1.9667    0.0000 O   0  0  0  0  0  0  0  0  0  0  0  0
    9.7561   -1.2944    0.0000 C   0  0  0  0  0  0  0  0  0  0  0  0
    9.2676   -0.6225    0.0000 N   0  0  0  0  0  0  0  0  0  0  0  0
   10.5777   -1.2927    0.0000 C   0  0  0  0  0  0  0  0  0  0  0  0
   10.9896   -2.0084    0.0000 C   0  0  0  0  0  0  0  0  0  0  0  0
   11.8136   -2.0085    0.0000 C   0  0  0  0  0  0  0  0  0  0  0  0
   12.2266   -1.2936    0.0000 C   0  0  0  0  0  0  0  0  0  0  0  0
   11.8095   -0.5771    0.0000 C   0  0  0  0  0  0  0  0  0  0  0  0
   10.9869   -0.5805    0.0000 C   0  0  0  0  0  0  0  0  0  0  0  0
   10.5723    0.1325    0.0000 O   0  0  0  0  0  0  0  0  0  0  0  0
    8.4754    0.7706    0.0000 O   0  0  0  0  0  0  0  0  0  0  0  0
    7.0469    0.7693    0.0000 O   0  0  0  0  0  0  0  0  0  0  0  0
    7.0461    1.5940    0.0000 C   0  0  0  0  0  0  0  0  0  0  0  0
 10  6  1  0
  5  1  1  0
  5  2  1  0
  6  7  1  0
 11 12  2  0
 12 13  1  0
  3  4  1  0
 13 14  2  0
  4  7  2  0
 14 15  1  0
  2  3  2  0
 15 16  2  0
 16 11  1  0
  9 11  1  0
  6  5  2  0
 16 17  1  0
  7  8  1  0
  1 18  2  0
  8  9  1  0
  1 19  1  0
  9 10  2  0
 19 20  1  0
M  END
> <chembl_id>
CHEMBL406526

> <chembl_pref_name>
None

$$$$
CHEMBL1496459
     RDKit          2D

 30 33  0  0  0  0  0  0  0  0999 V2000
    0.4962   -1.8780    0.0000 S   0  0  0  0  0  0  0  0  0  0  0  0
   -1.8782   -2.6333    0.0000 O   0  0  0  0  0  0  0  0  0  0  0  0
   -0.3133    0.6136    0.0000 O   0  0  0  0  0  0  0  0  0  0  0  0
   -2.1082    0.6136    0.0000 O   0  0  0  0  0  0  0  0  0  0  0  0
   -2.8344   -1.9003    0.0000 O   0  0  0  0  0  0  0  0  0  0  0  0
   -5.1152    1.1148    0.0000 O   0  0  0  0  0  0  0  0  0  0  0  0
   -0.5433   -0.8384    0.0000 N   0  0  0  0  0  0  0  0  0  0  0  0
    0.9087   -0.6084    0.0000 N   0  0  0  0  0  0  0  0  0  0  0  0
   -1.2108   -1.3233    0.0000 C   0  0  0  0  0  0  0  0  0  0  0  0
   -1.8782   -0.8384    0.0000 C   0  0  0  0  0  0  0  0  0  0  0  0
   -0.7983   -0.0538    0.0000 C   0  0  0  0  0  0  0  0  0  0  0  0
   -1.6233   -0.0538    0.0000 C   0  0  0  0  0  0  0  0  0  0  0  0
    0.2413   -1.0934    0.0000 C   0  0  0  0  0  0  0  0  0  0  0  0
   -1.2108   -2.1483    0.0000 C   0  0  0  0  0  0  0  0  0  0  0  0
   -2.6628   -1.0934    0.0000 C   0  0  0  0  0  0  0  0  0  0  0  0
   -3.2759   -0.5413    0.0000 C   0  0  0  0  0  0  0  0  0  0  0  0
    1.3212   -1.8780    0.0000 C   0  0  0  0  0  0  0  0  0  0  0  0
    1.5762   -1.0934    0.0000 C   0  0  0  0  0  0  0  0  0  0  0  0
   -0.5433   -2.6333    0.0000 C   0  0  0  0  0  0  0  0  0  0  0  0
   -1.6233   -3.4179    0.0000 C   0  0  0  0  0  0  0  0  0  0  0  0
   -0.7983   -3.4179    0.0000 C   0  0  0  0  0  0  0  0  0  0  0  0
   -4.0605   -0.7963    0.0000 C   0  0  0  0  0  0  0  0  0  0  0  0
   -3.1044    0.2656    0.0000 C   0  0  0  0  0  0  0  0  0  0  0  0
    1.8062   -2.5454    0.0000 C   0  0  0  0  0  0  0  0  0  0  0  0
    2.3608   -0.8384    0.0000 C   0  0  0  0  0  0  0  0  0  0  0  0
   -4.6736   -0.2442    0.0000 C   0  0  0  0  0  0  0  0  0  0  0  0
   -3.7175    0.8177    0.0000 C   0  0  0  0  0  0  0  0  0  0  0  0
   -4.5021    0.5627    0.0000 C   0  0  0  0  0  0  0  0  0  0  0  0
   -4.9437    1.9217    0.0000 C   0  0  0  0  0  0  0  0  0  0  0  0
   -5.5568    2.4738    0.0000 C   0  0  0  0  0  0  0  0  0  0  0  0
  1 13  1  0
  1 17  1  0
  2 14  1  0
  2 20  1  0
  3 11  2  0
  4 12  1  0
  5 15  2  0
  6 28  1  0
  6 29  1  0
  7  9  1  0
  7 11  1  0
  7 13  1  0
  8 13  2  0
  8 18  1  0
  9 10  1  0
  9 14  1  0
 10 12  2  0
 10 15  1  0
 11 12  1  0
 14 19  2  0
 15 16  1  0
 16 22  2  0
 16 23  1  0
 17 18  2  0
 17 24  1  0
 18 25  1  0
 19 21  1  0
 20 21  2  0
 22 26  1  0
 23 27  2  0
 26 28  2  0
 27 28  1  0
 29 30  1  0
M  END
> <chembl_id>
CHEMBL1496459

> <chembl_pref_name>
None

$$$$
CHEMBL1092553
     RDKit          2D

 27 30  0  0  0  0  0  0  0  0999 V2000
   -5.1825  -25.6118    0.0000 C   0  0  0  0  0  0  0  0  0  0  0  0
   -5.1825  -26.4375    0.0000 C   0  0  0  0  0  0  0  0  0  0  0  0
   -4.4714  -26.8481    0.0000 C   0  0  0  0  0  0  0  0  0  0  0  0
   -3.7603  -26.4375    0.0000 C   0  0  0  0  0  0  0  0  0  0  0  0
   -3.7608  -25.6099    0.0000 C   0  0  0  0  0  0  0  0  0  0  0  0
   -4.4714  -25.1966    0.0000 C   0  0  0  0  0  0  0  0  0  0  0  0
   -3.0425  -26.8538    0.0000 N   0  0  0  0  0  0  0  0  0  0  0  0
   -2.3280  -26.4398    0.0000 C   0  0  0  0  0  0  0  0  0  0  0  0
   -1.6166  -26.8571    0.0000 C   0  0  0  0  0  0  0  0  0  0  0  0
   -0.9026  -26.4438    0.0000 C   0  0  0  0  0  0  0  0  0  0  0  0
   -0.9009  -25.6171    0.0000 C   0  0  0  0  0  0  0  0  0  0  0  0
   -1.6195  -25.2055    0.0000 C   0  0  0  0  0  0  0  0  0  0  0  0
   -1.6189  -27.6783    0.0000 C   0  0  0  0  0  0  0  0  0  0  0  0
   -2.3340  -28.0914    0.0000 O   0  0  0  0  0  0  0  0  0  0  0  0
   -0.9064  -28.0954    0.0000 N   0  0  0  0  0  0  0  0  0  0  0  0
   -4.4714  -27.6739    0.0000 O   0  0  0  0  0  0  0  0  0  0  0  0
   -5.1853  -28.0845    0.0000 C   0  0  0  0  0  0  0  0  0  0  0  0
   -3.0416  -25.2007    0.0000 C   0  0  0  0  0  0  0  0  0  0  0  0
   -2.3285  -25.6128    0.0000 C   0  0  0  0  0  0  0  0  0  0  0  0
   -3.0399  -24.3750    0.0000 O   0  0  0  0  0  0  0  0  0  0  0  0
   -0.1913  -27.6823    0.0000 C   0  0  0  0  0  0  0  0  0  0  0  0
    0.5218  -28.1011    0.0000 C   0  0  0  0  0  0  0  0  0  0  0  0
    1.2364  -27.6888    0.0000 N   0  0  0  0  0  0  0  0  0  0  0  0
    1.2392  -26.8620    0.0000 C   0  0  0  0  0  0  0  0  0  0  0  0
    0.5211  -26.4496    0.0000 C   0  0  0  0  0  0  0  0  0  0  0  0
   -0.1902  -26.8599    0.0000 C   0  0  0  0  0  0  0  0  0  0  0  0
   -0.1869  -25.2066    0.0000 F   0  0  0  0  0  0  0  0  0  0  0  0
  5  6  1  0
  9 13  1  0
 13 14  2  0
  4  7  1  0
 13 15  1  0
  1  2  1  0
  3 16  1  0
  7  8  1  0
 16 17  1  0
  1  6  2  0
  5 18  1  0
  8  9  1  0
 18 19  1  0
  2  3  2  0
 18 20  2  0
  9 10  2  0
 15 21  1  0
  3  4  1  0
 21 22  2  0
 10 11  1  0
 22 23  1  0
  4  5  2  0
 23 24  2  0
 11 12  2  0
 24 25  1  0
 12 19  1  0
 25 26  2  0
 26 21  1  0
 19  8  2  0
 11 27  1  0
M  END
> <chembl_id>
CHEMBL1092553

> <chembl_pref_name>
None

$$$$
CHEMBL111574
     RDKit          2D

 29 33  0  0  0  0  0  0  0  0999 V2000
    5.8542   -5.4000    0.0000 C   0  0  0  0  0  0  0  0  0  0  0  0
    7.5125   -3.4292    0.0000 C   0  0  0  0  0  0  0  0  0  0  0  0
    5.3667   -4.7292    0.0000 N   0  0  0  0  0  0  0  0  0  0  0  0
    6.8417   -3.9042    0.0000 N   0  0  0  0  0  0  0  0  0  0  0  0
    7.0917   -4.6917    0.0000 C   0  0  0  0  0  0  0  0  0  0  0  0
    4.5875   -4.9792    0.0000 C   0  0  0  0  0  0  0  0  0  0  0  0
    6.6750   -5.4000    0.0000 C   0  0  0  0  0  0  0  0  0  0  0  0
    3.8792   -4.5667    0.0000 C   0  0  0  0  0  0  0  0  0  0  0  0
    5.3625   -6.0667    0.0000 O   0  0  0  0  0  0  0  0  0  0  0  0
    8.1750   -3.9167    0.0000 O   0  0  0  0  0  0  0  0  0  0  0  0
    7.5167   -2.6042    0.0000 C   0  0  0  0  0  0  0  0  0  0  0  0
    4.5792   -5.8042    0.0000 C   0  0  0  0  0  0  0  0  0  0  0  0
    7.9125   -4.7000    0.0000 C   0  0  0  0  0  0  0  0  0  0  0  0
    3.8792   -3.7375    0.0000 C   0  0  0  0  0  0  0  0  0  0  0  0
    6.8125   -2.1917    0.0000 C   0  0  0  0  0  0  0  0  0  0  0  0
    3.1750   -3.3167    0.0000 O   0  0  0  0  0  0  0  0  0  0  0  0
    7.0792   -6.1167    0.0000 C   0  0  0  0  0  0  0  0  0  0  0  0
    3.1667   -4.9750    0.0000 C   0  0  0  0  0  0  0  0  0  0  0  0
    4.6042   -3.3292    0.0000 O   0  0  0  0  0  0  0  0  0  0  0  0
    6.0917   -2.5917    0.0000 O   0  0  0  0  0  0  0  0  0  0  0  0
    8.2417   -2.2000    0.0000 C   0  0  0  0  0  0  0  0  0  0  0  0
    3.8667   -6.2125    0.0000 C   0  0  0  0  0  0  0  0  0  0  0  0
    8.3167   -5.4042    0.0000 C   0  0  0  0  0  0  0  0  0  0  0  0
    7.9125   -6.1167    0.0000 C   0  0  0  0  0  0  0  0  0  0  0  0
    3.1625   -5.8000    0.0000 C   0  0  0  0  0  0  0  0  0  0  0  0
    6.8167   -1.3667    0.0000 C   0  0  0  0  0  0  0  0  0  0  0  0
    4.6000   -2.5042    0.0000 C   0  0  0  0  0  0  0  0  0  0  0  0
    8.2500   -1.3750    0.0000 C   0  0  0  0  0  0  0  0  0  0  0  0
    7.5375   -0.9542    0.0000 C   0  0  0  0  0  0  0  0  0  0  0  0
  2  4  2  0
  3  1  2  0
  4  5  1  0
  5  7  1  0
  6  3  1  0
  7  1  1  0
  8  6  1  0
  9  1  1  0
 10 13  1  0
 11  2  1  0
 12  9  1  0
 13  5  2  0
 14  8  1  0
 15 11  1  0
 16 14  2  0
 17  7  2  0
 18  8  2  0
 19 14  1  0
 20 15  1  0
 21 11  2  0
 22 12  1  0
 23 24  2  0
 24 17  1  0
 25 22  2  0
 26 15  2  0
 27 19  1  0
 28 21  1  0
 29 28  2  0
  6 12  2  0
 25 18  1  0
 23 13  1  0
  2 10  1  0
 29 26  1  0
M  END
> <chembl_id>
CHEMBL111574

> <chembl_pref_name>
None

$$$$
CHEMBL298714
     RDKit          2D

 17 18  0  0  0  0  0  0  0  0999 V2000
    1.3167   -4.4125    0.0000 C   0  0  0  0  0  0  0  0  0  0  0  0
    0.7917   -4.7125    0.0000 N   0  0  0  0  0  0  0  0  0  0  0  0
    0.2792   -4.4125    0.0000 C   0  0  0  0  0  0  0  0  0  0  0  0
    0.2792   -3.8125    0.0000 N   0  0  0  0  0  0  0  0  0  0  0  0
    1.3167   -3.8042    0.0000 C   0  0  0  0  0  0  0  0  0  0  0  0
    0.7917   -3.5042    0.0000 C   0  0  0  0  0  0  0  0  0  0  0  0
    1.8375   -4.7125    0.0000 N   0  0  0  0  0  0  0  0  0  0  0  0
    2.3542   -4.4042    0.0000 C   0  0  0  0  0  0  0  0  0  0  0  0
   -0.2458   -4.7125    0.0000 O   0  0  0  0  0  0  0  0  0  0  0  0
    2.8750   -4.7042    0.0000 C   0  0  0  0  0  0  0  0  0  0  0  0
    2.3500   -3.8125    0.0000 C   0  0  0  0  0  0  0  0  0  0  0  0
    2.8667   -3.5042    0.0000 C   0  0  0  0  0  0  0  0  0  0  0  0
    3.3917   -4.4042    0.0000 C   0  0  0  0  0  0  0  0  0  0  0  0
    0.7917   -2.9042    0.0000 O   0  0  0  0  0  0  0  0  0  0  0  0
    3.3917   -3.8042    0.0000 C   0  0  0  0  0  0  0  0  0  0  0  0
    2.8625   -2.9042    0.0000 Cl  0  0  0  0  0  0  0  0  0  0  0  0
    3.9125   -4.7042    0.0000 Cl  0  0  0  0  0  0  0  0  0  0  0  0
  2  1  2  0
  3  2  1  0
  4  6  1  0
  5  1  1  0
  6  5  2  0
  7  1  1  0
  8  7  1  0
  9  3  1  0
 10  8  2  0
 11  8  1  0
 12 11  2  0
 13 10  1  0
 14  6  1  0
 15 12  1  0
 16 12  1  0
 17 13  1  0
  3  4  2  0
 15 13  2  0
M  END
> <chembl_id>
CHEMBL298714

> <chembl_pref_name>
None

$$$$
CHEMBL466642
     RDKit          2D

 24 25  0  0  0  0  0  0  0  0999 V2000
    4.3944   -4.6041    0.0000 C   0  0  0  0  0  0  0  0  0  0  0  0
    4.3932   -5.4315    0.0000 C   0  0  0  0  0  0  0  0  0  0  0  0
    5.1081   -5.8444    0.0000 C   0  0  0  0  0  0  0  0  0  0  0  0
    5.8245   -5.4310    0.0000 C   0  0  0  0  0  0  0  0  0  0  0  0
    5.8216   -4.6005    0.0000 C   0  0  0  0  0  0  0  0  0  0  0  0
    5.1063   -4.1914    0.0000 C   0  0  0  0  0  0  0  0  0  0  0  0
    6.5396   -5.8424    0.0000 C   0  0  0  0  0  0  0  0  0  0  0  0
    6.5409   -6.6674    0.0000 O   0  0  0  0  0  0  0  0  0  0  0  0
    3.6798   -4.1918    0.0000 C   0  0  0  0  0  0  0  0  0  0  0  0
    2.9655   -4.6045    0.0000 N   0  0  0  0  0  0  0  0  0  0  0  0
    2.2509   -4.1921    0.0000 C   0  0  0  0  0  0  0  0  0  0  0  0
    1.5365   -4.6048    0.0000 C   0  0  0  0  0  0  0  0  0  0  0  0
    2.2507   -3.3671    0.0000 O   0  0  0  0  0  0  0  0  0  0  0  0
    0.7834   -4.2655    0.0000 C   0  0  0  0  0  0  0  0  0  0  0  0
    0.2315   -4.8787    0.0000 C   0  0  0  0  0  0  0  0  0  0  0  0
    0.6442   -5.5931    0.0000 C   0  0  0  0  0  0  0  0  0  0  0  0
    1.4511   -5.4213    0.0000 N   0  0  0  0  0  0  0  0  0  0  0  0
   -0.5890   -4.7927    0.0000 C   0  0  0  0  0  0  0  0  0  0  0  0
   -1.0738   -5.4602    0.0000 C   0  0  0  0  0  0  0  0  0  0  0  0
   -1.8943   -5.3742    0.0000 C   0  0  0  0  0  0  0  0  0  0  0  0
   -2.3790   -6.0417    0.0000 C   0  0  0  0  0  0  0  0  0  0  0  0
   -2.2300   -4.6206    0.0000 O   0  0  0  0  0  0  0  0  0  0  0  0
    7.2534   -5.4288    0.0000 O   0  0  0  0  0  0  0  0  0  0  0  0
    7.8368   -6.0121    0.0000 C   0  0  0  0  0  0  0  0  0  0  0  0
  5  6  2  0
 10 11  1  0
  6  1  1  0
 11 12  1  0
  1  2  2  0
 11 13  2  0
 12 14  2  0
  4  7  1  0
  3  4  2  0
  7  8  2  0
 14 15  1  0
 15 16  2  0
 16 17  1  0
 17 12  1  0
  7 23  1  0
 15 18  1  0
  4  5  1  0
 18 19  2  0
  1  9  1  0
 19 20  1  0
  2  3  1  0
 20 21  1  0
  9 10  1  0
 20 22  2  0
 23 24  1  0
M  END
> <chembl_id>
CHEMBL466642

> <chembl_pref_name>
None

$$$$
CHEMBL1253551
     RDKit          2D

 10 10  0  0  0  0  0  0  0  0999 V2000
   17.0830  -21.7298    0.0000 C   0  0  0  0  0  0  0  0  0  0  0  0
   16.2284  -21.7518    0.0000 C   0  0  0  0  0  0  0  0  0  0  0  0
   15.7492  -22.4042    0.0000 C   0  0  0  0  0  0  0  0  0  0  0  0
   17.6073  -22.3800    0.0000 C   0  0  0  0  0  0  0  0  0  0  0  0
   17.4177  -23.1829    0.0000 C   0  0  0  0  0  0  0  0  0  0  0  0
   16.6382  -23.5508    0.0000 C   0  0  0  0  0  0  0  0  0  0  0  0
   15.9268  -23.1991    0.0000 C   0  0  0  0  0  0  0  0  0  0  0  0
   15.8442  -21.0165    0.0000 O   0  0  0  0  0  0  0  0  0  0  0  0
   17.4309  -20.9767    0.0000 O   0  0  0  0  0  0  0  0  0  0  0  0
   18.4329  -22.3785    0.0000 Br  0  0  0  0  0  0  0  0  0  0  0  0
  1  4  2  0
  5  6  2  0
  6  7  1  0
  7  3  2  0
  4  5  1  0
  2  8  2  0
  1  2  1  0
  1  9  1  0
  2  3  1  0
  4 10  1  0
M  END
> <chembl_id>
CHEMBL1253551

> <chembl_pref_name>
None

$$$$
CHEMBL1580969
     RDKit          2D

 28 29  0  0  0  0  0  0  0  0999 V2000
   -3.6191    0.8137    0.0000 S   0  0  0  0  0  0  0  0  0  0  0  0
   -2.1902   -2.4863    0.0000 F   0  0  0  0  0  0  0  0  0  0  0  0
   -1.3652   -1.6613    0.0000 F   0  0  0  0  0  0  0  0  0  0  0  0
   -3.0152   -1.6613    0.0000 F   0  0  0  0  0  0  0  0  0  0  0  0
    1.3822    2.0512    0.0000 O   0  0  0  0  0  0  0  0  0  0  0  0
   -5.7625    0.4012    0.0000 O   0  0  0  0  0  0  0  0  0  0  0  0
   -5.0481    1.6387    0.0000 O   0  0  0  0  0  0  0  0  0  0  0  0
   -2.1902    0.8137    0.0000 N   0  0  0  0  0  0  0  0  0  0  0  0
   -4.3336   -1.2488    0.0000 N   0  0  0  0  0  0  0  0  0  0  0  0
   -2.1902   -0.8363    0.0000 C   0  0  0  0  0  0  0  0  0  0  0  0
   -2.9047   -0.4238    0.0000 C   0  0  0  0  0  0  0  0  0  0  0  0
   -1.4757    0.4012    0.0000 C   0  0  0  0  0  0  0  0  0  0  0  0
   -2.9047    0.4012    0.0000 C   0  0  0  0  0  0  0  0  0  0  0  0
   -2.1902   -1.6613    0.0000 C   0  0  0  0  0  0  0  0  0  0  0  0
   -1.4757   -0.4238    0.0000 C   0  0  0  0  0  0  0  0  0  0  0  0
   -0.7612    0.8137    0.0000 C   0  0  0  0  0  0  0  0  0  0  0  0
   -3.6191   -0.8363    0.0000 C   0  0  0  0  0  0  0  0  0  0  0  0
   -0.7612    1.6387    0.0000 C   0  0  0  0  0  0  0  0  0  0  0  0
   -0.0468    0.4012    0.0000 C   0  0  0  0  0  0  0  0  0  0  0  0
    0.6677    1.6387    0.0000 C   0  0  0  0  0  0  0  0  0  0  0  0
   -0.0468    2.0512    0.0000 C   0  0  0  0  0  0  0  0  0  0  0  0
    0.6677    0.8137    0.0000 C   0  0  0  0  0  0  0  0  0  0  0  0
   -4.3336    0.4012    0.0000 C   0  0  0  0  0  0  0  0  0  0  0  0
   -5.0481    0.8137    0.0000 C   0  0  0  0  0  0  0  0  0  0  0  0
    2.0966    1.6387    0.0000 C   0  0  0  0  0  0  0  0  0  0  0  0
    2.8111    2.0512    0.0000 C   0  0  0  0  0  0  0  0  0  0  0  0
    3.5256    1.6387    0.0000 C   0  0  0  0  0  0  0  0  0  0  0  0
    4.2401    2.0512    0.0000 C   0  0  0  0  0  0  0  0  0  0  0  0
  1 13  1  0
  1 23  1  0
  2 14  1  0
  3 14  1  0
  4 14  1  0
  5 20  1  0
  5 25  1  0
  6 24  2  0
  7 24  1  0
  8 12  1  0
  8 13  2  0
  9 17  3  0
 10 11  2  0
 10 14  1  0
 10 15  1  0
 11 13  1  0
 11 17  1  0
 12 15  2  0
 12 16  1  0
 16 18  2  0
 16 19  1  0
 18 21  1  0
 19 22  2  0
 20 21  2  0
 20 22  1  0
 23 24  1  0
 25 26  1  0
 26 27  1  0
 27 28  1  0
M  END
> <chembl_id>
CHEMBL1580969

> <chembl_pref_name>
None

$$$$
CHEMBL3197424
     RDKit          2D

 27 30  0  0  0  0  0  0  0  0999 V2000
    2.5358   12.6625    0.0000 Cl  0  0  0  0  0  0  0  0  0  0  0  0
    6.5982   10.3459    0.0000 Cl  0  0  0  0  0  0  0  0  0  0  0  0
    3.0746    1.1530    0.0000 O   0  0  0  0  0  0  0  0  0  0  0  0
    4.3918    3.8370    0.0000 O   0  0  0  0  0  0  0  0  0  0  0  0
    5.2358   12.6769    0.0000 O   0  0  0  0  0  0  0  0  0  0  0  0
    2.4327    5.1232    0.0000 N   0  0  0  0  0  0  0  0  0  0  0  0
    3.1735    6.4284    0.0000 N   0  0  0  0  0  0  0  0  0  0  0  0
    0.6405    0.8968    0.0000 C   0  0  0  0  0  0  0  0  0  0  0  0
    1.9399    0.1464    0.0000 C   0  0  0  0  0  0  0  0  0  0  0  0
   -0.6588    0.1464    0.0000 C   0  0  0  0  0  0  0  0  0  0  0  0
    2.4524    2.5256    0.0000 C   0  0  0  0  0  0  0  0  0  0  0  0
    0.9517    2.3608    0.0000 C   0  0  0  0  0  0  0  0  0  0  0  0
   -0.6588   -1.3543    0.0000 C   0  0  0  0  0  0  0  0  0  0  0  0
    1.9399   -1.3543    0.0000 C   0  0  0  0  0  0  0  0  0  0  0  0
    3.1918    3.8285    0.0000 C   0  0  0  0  0  0  0  0  0  0  0  0
    0.6405   -2.0863    0.0000 C   0  0  0  0  0  0  0  0  0  0  0  0
   -1.9399    0.8968    0.0000 C   0  0  0  0  0  0  0  0  0  0  0  0
   -1.9399   -2.0863    0.0000 C   0  0  0  0  0  0  0  0  0  0  0  0
    3.1552    9.0283    0.0000 C   0  0  0  0  0  0  0  0  0  0  0  0
    4.6413   11.6345    0.0000 C   0  0  0  0  0  0  0  0  0  0  0  0
    3.1413   11.6265    0.0000 C   0  0  0  0  0  0  0  0  0  0  0  0
    5.3983   10.3394    0.0000 C   0  0  0  0  0  0  0  0  0  0  0  0
   -3.2576    0.1464    0.0000 C   0  0  0  0  0  0  0  0  0  0  0  0
    2.3983   10.3234    0.0000 C   0  0  0  0  0  0  0  0  0  0  0  0
    4.6552    9.0364    0.0000 C   0  0  0  0  0  0  0  0  0  0  0  0
   -3.2576   -1.3543    0.0000 C   0  0  0  0  0  0  0  0  0  0  0  0
    2.4143    7.7231    0.0000 C   0  0  0  0  0  0  0  0  0  0  0  0
  1 21  1  0
  2 22  1  0
  3  9  1  0
  3 11  1  0
  4 15  2  0
  5 20  1  0
  6  7  1  0
  6 15  1  0
  7 27  2  0
  8  9  1  0
  8 10  2  0
  8 12  1  0
  9 14  2  0
 10 13  1  0
 10 17  1  0
 11 12  2  0
 11 15  1  0
 13 16  2  0
 13 18  1  0
 14 16  1  0
 17 23  2  0
 18 26  2  0
 19 24  2  0
 19 25  1  0
 19 27  1  0
 20 21  2  0
 20 22  1  0
 21 24  1  0
 22 25  2  0
 23 26  1  0
M  END
> <chembl_id>
CHEMBL3197424

> <chembl_pref_name>
None

$$$$
CHEMBL4080821
     RDKit          2D

 15 16  0  0  0  0  0  0  0  0999 V2000
   16.3919  -11.1476    0.0000 C   0  0  0  0  0  0  0  0  0  0  0  0
   16.3908  -11.9671    0.0000 C   0  0  0  0  0  0  0  0  0  0  0  0
   17.0988  -12.3761    0.0000 C   0  0  0  0  0  0  0  0  0  0  0  0
   17.8085  -11.9667    0.0000 C   0  0  0  0  0  0  0  0  0  0  0  0
   17.8057  -11.1440    0.0000 C   0  0  0  0  0  0  0  0  0  0  0  0
   17.0970  -10.7387    0.0000 C   0  0  0  0  0  0  0  0  0  0  0  0
   17.0946   -9.9216    0.0000 O   0  0  0  0  0  0  0  0  0  0  0  0
   17.8011   -9.5109    0.0000 C   0  0  0  0  0  0  0  0  0  0  0  0
   18.5079   -9.9197    0.0000 C   0  0  0  0  0  0  0  0  0  0  0  0
   19.2139   -9.5097    0.0000 C   0  0  0  0  0  0  0  0  0  0  0  0
   19.2119   -8.6916    0.0000 C   0  0  0  0  0  0  0  0  0  0  0  0
   18.4980   -8.2853    0.0000 C   0  0  0  0  0  0  0  0  0  0  0  0
   17.7949   -8.6977    0.0000 C   0  0  0  0  0  0  0  0  0  0  0  0
   15.6828  -12.3752    0.0000 C   0  0  0  0  0  0  0  0  0  0  0  0
   14.9754  -11.9660    0.0000 N   0  0  0  0  0  0  0  0  0  0  0  0
  1  2  2  0
  2  3  1  0
  3  4  2  0
  4  5  1  0
  5  6  2  0
  6  1  1  0
  6  7  1  0
  7  8  1  0
  8  9  2  0
  9 10  1  0
 10 11  2  0
 11 12  1  0
 12 13  2  0
 13  8  1  0
  2 14  1  0
 14 15  1  0
M  END
> <chembl_id>
CHEMBL4080821

> <chembl_pref_name>
None

$$$$
CHEMBL1509648
     RDKit          2D

 31 33  0  0  0  0  0  0  0  0999 V2000
   -0.5617    1.1238    0.0000 O   0  0  0  0  0  0  0  0  0  0  0  0
   -1.4190   -2.5583    0.0000 O   0  0  0  0  0  0  0  0  0  0  0  0
    3.0996   -1.4044    0.0000 O   0  0  0  0  0  0  0  0  0  0  0  0
    1.7942   -0.8232    0.0000 O   0  0  0  0  0  0  0  0  0  0  0  0
   -0.5179   -2.5030    0.0000 O   0  0  0  0  0  0  0  0  0  0  0  0
   -0.2192   -5.3452    0.0000 O   0  0  0  0  0  0  0  0  0  0  0  0
    0.6382   -1.6631    0.0000 N   0  0  0  0  0  0  0  0  0  0  0  0
    2.2791   -1.4906    0.0000 N   0  0  0  0  0  0  0  0  0  0  0  0
    0.9369   -4.5053    0.0000 N   0  0  0  0  0  0  0  0  0  0  0  0
    1.1231   -2.3305    0.0000 C   0  0  0  0  0  0  0  0  0  0  0  0
    1.9436   -2.2443    0.0000 C   0  0  0  0  0  0  0  0  0  0  0  0
    1.2724   -3.7516    0.0000 C   0  0  0  0  0  0  0  0  0  0  0  0
    0.7875   -3.0842    0.0000 C   0  0  0  0  0  0  0  0  0  0  0  0
    2.4285   -2.9117    0.0000 C   0  0  0  0  0  0  0  0  0  0  0  0
    2.0929   -3.6654    0.0000 C   0  0  0  0  0  0  0  0  0  0  0  0
   -0.1823   -1.7493    0.0000 C   0  0  0  0  0  0  0  0  0  0  0  0
    0.1164   -4.5916    0.0000 C   0  0  0  0  0  0  0  0  0  0  0  0
   -0.8166    0.3392    0.0000 C   0  0  0  0  0  0  0  0  0  0  0  0
   -1.6739   -3.3429    0.0000 C   0  0  0  0  0  0  0  0  0  0  0  0
   -0.6672   -1.0819    0.0000 C   0  0  0  0  0  0  0  0  0  0  0  0
   -0.3317   -0.3282    0.0000 C   0  0  0  0  0  0  0  0  0  0  0  0
   -0.3685   -3.9241    0.0000 C   0  0  0  0  0  0  0  0  0  0  0  0
   -1.1890   -4.0104    0.0000 C   0  0  0  0  0  0  0  0  0  0  0  0
   -1.2291    1.6088    0.0000 C   0  0  0  0  0  0  0  0  0  0  0  0
   -2.0864   -2.0734    0.0000 C   0  0  0  0  0  0  0  0  0  0  0  0
   -1.6416    0.3392    0.0000 C   0  0  0  0  0  0  0  0  0  0  0  0
   -2.4989   -3.3429    0.0000 C   0  0  0  0  0  0  0  0  0  0  0  0
   -1.8966    1.1238    0.0000 C   0  0  0  0  0  0  0  0  0  0  0  0
   -2.7539   -2.5583    0.0000 C   0  0  0  0  0  0  0  0  0  0  0  0
   -1.2291    2.4338    0.0000 C   0  0  0  0  0  0  0  0  0  0  0  0
   -2.0864   -1.2484    0.0000 C   0  0  0  0  0  0  0  0  0  0  0  0
  1 18  1  0
  1 24  1  0
  2 19  1  0
  2 25  1  0
  3  8  1  0
  4  8  2  0
  5 16  2  0
  6 17  2  0
  7 10  1  0
  7 16  1  0
  8 11  1  0
  9 12  1  0
  9 17  1  0
 10 11  1  0
 10 13  2  0
 11 14  2  0
 12 13  1  0
 12 15  2  0
 14 15  1  0
 16 20  1  0
 17 22  1  0
 18 21  1  0
 18 26  2  0
 19 23  1  0
 19 27  2  0
 20 21  2  0
 22 23  2  0
 24 28  2  0
 24 30  1  0
 25 29  2  0
 25 31  1  0
 26 28  1  0
 27 29  1  0
M  CHG  2   3  -1   8   1
M  END
> <chembl_id>
CHEMBL1509648

> <chembl_pref_name>
None

$$$$
CHEMBL4792671
     RDKit          2D

 25 28  0  0  0  0  0  0  0  0999 V2000
    3.4788   -7.2687    0.0000 C   0  0  0  0  0  0  0  0  0  0  0  0
    4.1139   -6.5915    0.0000 C   0  0  0  0  0  0  0  0  0  0  0  0
    4.2756   -7.0458    0.0000 C   0  0  0  0  0  0  0  0  0  0  0  0
    4.8145   -6.8517    0.0000 C   0  0  0  0  0  0  0  0  0  0  0  0
    5.0212   -7.3457    0.0000 C   0  0  0  0  0  0  0  0  0  0  0  0
    5.5593   -6.6679    0.0000 C   0  0  0  0  0  0  0  0  0  0  0  0
    4.2688   -6.2055    0.0000 O   0  0  0  0  0  0  0  0  0  0  0  0
    4.8243   -5.5497    0.0000 C   0  0  0  0  0  0  0  0  0  0  0  0
    4.1095   -5.8036    0.0000 O   0  0  0  0  0  0  0  0  0  0  0  0
    5.5651   -5.8568    0.0000 O   0  0  0  0  0  0  0  0  0  0  0  0
    4.1176   -3.5040    0.0000 C   0  0  0  0  0  0  0  0  0  0  0  0
    4.1164   -4.3235    0.0000 C   0  0  0  0  0  0  0  0  0  0  0  0
    4.8245   -4.7325    0.0000 C   0  0  0  0  0  0  0  0  0  0  0  0
    5.5341   -4.3230    0.0000 C   0  0  0  0  0  0  0  0  0  0  0  0
    5.5313   -3.5004    0.0000 C   0  0  0  0  0  0  0  0  0  0  0  0
    4.8227   -3.0951    0.0000 N   0  0  0  0  0  0  0  0  0  0  0  0
    6.2375   -3.0891    0.0000 C   0  0  0  0  0  0  0  0  0  0  0  0
    3.2935   -6.5871    0.0000 O   0  0  0  0  0  0  0  0  0  0  0  0
    4.2676   -7.8624    0.0000 O   0  0  0  0  0  0  0  0  0  0  0  0
    6.3759   -6.6357    0.0000 O   0  0  0  0  0  0  0  0  0  0  0  0
    3.4097   -3.0956    0.0000 I   0  0  0  0  0  0  0  0  0  0  0  0
    6.2425   -4.7305    0.0000 O   0  0  0  0  0  0  0  0  0  0  0  0
    3.4084   -4.7316    0.0000 C   0  0  0  0  0  0  0  0  0  0  0  0
    2.7010   -4.3224    0.0000 O   0  0  0  0  0  0  0  0  0  0  0  0
    3.4077   -5.5487    0.0000 O   0  0  0  0  0  0  0  0  0  0  0  0
  1  2  1  0
  1  3  1  0
  2  4  1  0
  3  5  1  0
  4  6  1  0
  5  6  1  0
  7  8  1  0
  3  7  1  0
  2  9  1  0
  6 10  1  0
 10  8  1  0
  8  9  1  0
 11 12  2  0
 12 13  1  0
 13 14  2  0
 14 15  1  0
 15 16  2  0
 16 11  1  0
 15 17  1  0
 13  8  1  0
  2 18  1  0
  3 19  1  0
  6 20  1  0
 11 21  1  0
 14 22  1  0
 12 23  1  0
 23 24  1  0
 23 25  2  0
M  END
> <chembl_id>
CHEMBL4792671

> <chembl_pref_name>
None

$$$$
CHEMBL1311288
     RDKit          2D

 25 28  0  0  0  0  0  0  0  0999 V2000
    2.2317   -0.0100    0.0000 S   0  0  0  0  0  0  0  0  0  0  0  0
    4.6887   -1.6105    0.0000 S   0  0  0  0  0  0  0  0  0  0  0  0
   -2.2115    0.9680    0.0000 S   0  0  0  0  0  0  0  0  0  0  0  0
    5.1012   -2.3249    0.0000 O   0  0  0  0  0  0  0  0  0  0  0  0
    5.4032   -1.1980    0.0000 O   0  0  0  0  0  0  0  0  0  0  0  0
    0.7165   -0.0145    0.0000 O   0  0  0  0  0  0  0  0  0  0  0  0
    2.8992    1.1460    0.0000 N   0  0  0  0  0  0  0  0  0  0  0  0
    1.4310    1.2230    0.0000 N   0  0  0  0  0  0  0  0  0  0  0  0
   -2.2115    2.3029    0.0000 N   0  0  0  0  0  0  0  0  0  0  0  0
    3.9742   -2.0230    0.0000 N   0  0  0  0  0  0  0  0  0  0  0  0
    3.0387   -0.1815    0.0000 C   0  0  0  0  0  0  0  0  0  0  0  0
    3.4512    0.5330    0.0000 C   0  0  0  0  0  0  0  0  0  0  0  0
    4.2762   -0.8960    0.0000 C   0  0  0  0  0  0  0  0  0  0  0  0
    2.1455    0.8105    0.0000 C   0  0  0  0  0  0  0  0  0  0  0  0
    3.4512   -0.8960    0.0000 C   0  0  0  0  0  0  0  0  0  0  0  0
    4.2762    0.5330    0.0000 C   0  0  0  0  0  0  0  0  0  0  0  0
    4.6887   -0.1815    0.0000 C   0  0  0  0  0  0  0  0  0  0  0  0
    0.0021    1.2230    0.0000 C   0  0  0  0  0  0  0  0  0  0  0  0
    0.7165    0.8105    0.0000 C   0  0  0  0  0  0  0  0  0  0  0  0
   -1.4269    1.2230    0.0000 C   0  0  0  0  0  0  0  0  0  0  0  0
   -1.4269    2.0480    0.0000 C   0  0  0  0  0  0  0  0  0  0  0  0
   -0.7124    0.8105    0.0000 C   0  0  0  0  0  0  0  0  0  0  0  0
    0.0021    2.0480    0.0000 C   0  0  0  0  0  0  0  0  0  0  0  0
   -0.7124    2.4605    0.0000 C   0  0  0  0  0  0  0  0  0  0  0  0
   -2.6964    1.6355    0.0000 C   0  0  0  0  0  0  0  0  0  0  0  0
  1 11  1  0
  1 14  1  0
  2  4  2  0
  2  5  2  0
  2 10  1  0
  2 13  1  0
  3 20  1  0
  3 25  1  0
  6 19  2  0
  7 12  1  0
  7 14  2  0
  8 14  1  0
  8 19  1  0
  9 21  1  0
  9 25  2  0
 11 12  1  0
 11 15  2  0
 12 16  2  0
 13 15  1  0
 13 17  2  0
 16 17  1  0
 18 19  1  0
 18 22  1  0
 18 23  2  0
 20 21  1  0
 20 22  2  0
 21 24  2  0
 23 24  1  0
M  END
> <chembl_id>
CHEMBL1311288

> <chembl_pref_name>
None

$$$$
CHEMBL4097200
     RDKit          2D

 20 21  0  0  0  0  0  0  0  0999 V2000
    3.4627   -1.5683    0.0000 O   0  0  0  0  0  0  0  0  0  0  0  0
    3.8755   -2.2782    0.0000 S   0  0  0  0  0  0  0  0  0  0  0  0
    4.2839   -1.5659    0.0000 O   0  0  0  0  0  0  0  0  0  0  0  0
    6.0010   -2.6910    0.0000 C   0  0  0  0  0  0  0  0  0  0  0  0
    6.7087   -2.2824    0.0000 C   0  0  0  0  0  0  0  0  0  0  0  0
    7.4164   -2.6910    0.0000 N   0  0  0  0  0  0  0  0  0  0  0  0
    5.2933   -2.2824    0.0000 C   0  0  0  0  0  0  0  0  0  0  0  0
    4.5856   -2.6910    0.0000 N   0  0  0  0  0  0  0  0  0  0  0  0
    3.1702   -2.6910    0.0000 C   0  0  0  0  0  0  0  0  0  0  0  0
    2.4631   -2.2791    0.0000 C   0  0  0  0  0  0  0  0  0  0  0  0
    1.7559   -2.6870    0.0000 C   0  0  0  0  0  0  0  0  0  0  0  0
    1.7555   -3.5050    0.0000 C   0  0  0  0  0  0  0  0  0  0  0  0
    2.4681   -3.9135    0.0000 C   0  0  0  0  0  0  0  0  0  0  0  0
    3.1725   -3.5032    0.0000 C   0  0  0  0  0  0  0  0  0  0  0  0
    1.0483   -3.9146    0.0000 Cl  0  0  0  0  0  0  0  0  0  0  0  0
    7.4102   -3.5091    0.0000 C   0  0  0  0  0  0  0  0  0  0  0  0
    8.1138   -3.9176    0.0000 C   0  0  0  0  0  0  0  0  0  0  0  0
    8.8239   -3.5125    0.0000 C   0  0  0  0  0  0  0  0  0  0  0  0
    8.8259   -2.6943    0.0000 C   0  0  0  0  0  0  0  0  0  0  0  0
    8.1177   -2.2813    0.0000 C   0  0  0  0  0  0  0  0  0  0  0  0
  2  1  2  0
  3  2  2  0
  4  5  1  0
  5  6  1  0
  4  7  1  0
  7  8  1  0
  8  2  1  0
  2  9  1  0
  9 10  2  0
 10 11  1  0
 11 12  2  0
 12 13  1  0
 13 14  2  0
 14  9  1  0
 12 15  1  0
  6 16  1  0
  6 20  1  0
 16 17  1  0
 17 18  1  0
 18 19  1  0
 19 20  1  0
M  END
> <chembl_id>
CHEMBL4097200

> <chembl_pref_name>
None

$$$$
CHEMBL1464595
     RDKit          2D

 32 37  0  0  0  0  0  0  0  0999 V2000
   -3.4640    1.3568    0.0000 S   0  0  0  0  0  0  0  0  0  0  0  0
   -0.8494    0.0292    0.0000 S   0  0  0  0  0  0  0  0  0  0  0  0
   -3.3244   -1.3998    0.0000 O   0  0  0  0  0  0  0  0  0  0  0  0
   -5.5515   -0.1798    0.0000 O   0  0  0  0  0  0  0  0  0  0  0  0
   -2.0869   -0.6853    0.0000 N   0  0  0  0  0  0  0  0  0  0  0  0
   -2.0869    0.7437    0.0000 N   0  0  0  0  0  0  0  0  0  0  0  0
    1.6576    0.3312    0.0000 N   0  0  0  0  0  0  0  0  0  0  0  0
    0.8730    1.4111    0.0000 N   0  0  0  0  0  0  0  0  0  0  0  0
    2.3721    1.5687    0.0000 N   0  0  0  0  0  0  0  0  0  0  0  0
   -3.3244    0.0292    0.0000 C   0  0  0  0  0  0  0  0  0  0  0  0
   -2.9119   -0.6853    0.0000 C   0  0  0  0  0  0  0  0  0  0  0  0
   -2.9119    0.7437    0.0000 C   0  0  0  0  0  0  0  0  0  0  0  0
   -4.1314    0.2007    0.0000 C   0  0  0  0  0  0  0  0  0  0  0  0
   -1.6744    0.0292    0.0000 C   0  0  0  0  0  0  0  0  0  0  0  0
   -1.6744   -1.3998    0.0000 C   0  0  0  0  0  0  0  0  0  0  0  0
   -4.7445   -0.3513    0.0000 C   0  0  0  0  0  0  0  0  0  0  0  0
   -4.2176    1.0212    0.0000 C   0  0  0  0  0  0  0  0  0  0  0  0
   -4.6583   -1.1718    0.0000 C   0  0  0  0  0  0  0  0  0  0  0  0
    0.3881    0.7437    0.0000 C   0  0  0  0  0  0  0  0  0  0  0  0
   -0.8494   -1.3998    0.0000 C   0  0  0  0  0  0  0  0  0  0  0  0
   -2.0869   -2.1142    0.0000 C   0  0  0  0  0  0  0  0  0  0  0  0
   -0.4369    0.7437    0.0000 C   0  0  0  0  0  0  0  0  0  0  0  0
    1.6576    1.1562    0.0000 C   0  0  0  0  0  0  0  0  0  0  0  0
    0.8730    0.0762    0.0000 C   0  0  0  0  0  0  0  0  0  0  0  0
   -5.9640   -0.8943    0.0000 C   0  0  0  0  0  0  0  0  0  0  0  0
   -5.4119   -1.5074    0.0000 C   0  0  0  0  0  0  0  0  0  0  0  0
   -0.4369   -2.1142    0.0000 C   0  0  0  0  0  0  0  0  0  0  0  0
   -1.6744   -2.8287    0.0000 C   0  0  0  0  0  0  0  0  0  0  0  0
    2.3721   -0.0813    0.0000 C   0  0  0  0  0  0  0  0  0  0  0  0
   -0.8494   -2.8287    0.0000 C   0  0  0  0  0  0  0  0  0  0  0  0
    3.0866    1.1562    0.0000 C   0  0  0  0  0  0  0  0  0  0  0  0
    3.0866    0.3312    0.0000 C   0  0  0  0  0  0  0  0  0  0  0  0
  1 12  1  0
  1 17  1  0
  2 14  1  0
  2 22  1  0
  3 11  2  0
  4 16  1  0
  4 25  1  0
  5 11  1  0
  5 14  1  0
  5 15  1  0
  6 12  1  0
  6 14  2  0
  7 23  1  0
  7 24  1  0
  7 29  1  0
  8 19  1  0
  8 23  2  0
  9 23  1  0
  9 31  2  0
 10 11  1  0
 10 12  2  0
 10 13  1  0
 13 16  1  0
 13 17  2  0
 15 20  2  0
 15 21  1  0
 16 18  2  0
 18 26  1  0
 19 22  1  0
 19 24  2  0
 20 27  1  0
 21 28  2  0
 25 26  2  0
 27 30  2  0
 28 30  1  0
 29 32  2  0
 31 32  1  0
M  END
> <chembl_id>
CHEMBL1464595

> <chembl_pref_name>
None

$$$$
CHEMBL1605561
     RDKit          2D

 34 38  0  0  0  0  0  0  0  0999 V2000
    3.6447   -1.6689    0.0000 O   0  0  0  0  0  0  0  0  0  0  0  0
    3.0648   -2.6411    0.0000 O   0  0  0  0  0  0  0  0  0  0  0  0
    1.7310   -3.8421    0.0000 O   0  0  0  0  0  0  0  0  0  0  0  0
    1.9223   -0.2870    0.0000 O   0  0  0  0  0  0  0  0  0  0  0  0
   -1.1509   -3.0842    0.0000 O   0  0  0  0  0  0  0  0  0  0  0  0
   -1.6162   -0.9190    0.0000 O   0  0  0  0  0  0  0  0  0  0  0  0
   -1.1063    0.6502    0.0000 O   0  0  0  0  0  0  0  0  0  0  0  0
    0.9303   -2.6091    0.0000 N   0  0  0  0  0  0  0  0  0  0  0  0
   -0.5379   -2.5322    0.0000 N   0  0  0  0  0  0  0  0  0  0  0  0
    1.1018   -1.8022    0.0000 C   0  0  0  0  0  0  0  0  0  0  0  0
    1.9223   -1.7159    0.0000 C   0  0  0  0  0  0  0  0  0  0  0  0
    2.2579   -2.4696    0.0000 C   0  0  0  0  0  0  0  0  0  0  0  0
    1.6448   -3.0216    0.0000 C   0  0  0  0  0  0  0  0  0  0  0  0
    2.3348   -1.0014    0.0000 C   0  0  0  0  0  0  0  0  0  0  0  0
    0.5498   -1.1891    0.0000 C   0  0  0  0  0  0  0  0  0  0  0  0
    0.1766   -2.9447    0.0000 C   0  0  0  0  0  0  0  0  0  0  0  0
    3.1598   -1.0014    0.0000 C   0  0  0  0  0  0  0  0  0  0  0  0
   -0.2572   -1.3606    0.0000 C   0  0  0  0  0  0  0  0  0  0  0  0
    0.8047   -0.4044    0.0000 C   0  0  0  0  0  0  0  0  0  0  0  0
    0.0051   -3.7517    0.0000 C   0  0  0  0  0  0  0  0  0  0  0  0
    3.6447   -0.3340    0.0000 C   0  0  0  0  0  0  0  0  0  0  0  0
    4.4293   -1.4139    0.0000 C   0  0  0  0  0  0  0  0  0  0  0  0
    4.4293   -0.5889    0.0000 C   0  0  0  0  0  0  0  0  0  0  0  0
   -0.8092   -0.7475    0.0000 C   0  0  0  0  0  0  0  0  0  0  0  0
   -0.8154   -3.8379    0.0000 C   0  0  0  0  0  0  0  0  0  0  0  0
   -0.5543    0.0371    0.0000 C   0  0  0  0  0  0  0  0  0  0  0  0
    0.2527    0.2087    0.0000 C   0  0  0  0  0  0  0  0  0  0  0  0
    5.1438   -1.8264    0.0000 C   0  0  0  0  0  0  0  0  0  0  0  0
    5.1438   -0.1764    0.0000 C   0  0  0  0  0  0  0  0  0  0  0  0
    5.8583   -1.4139    0.0000 C   0  0  0  0  0  0  0  0  0  0  0  0
    5.8583   -0.5889    0.0000 C   0  0  0  0  0  0  0  0  0  0  0  0
   -1.2279   -4.5524    0.0000 C   0  0  0  0  0  0  0  0  0  0  0  0
   -2.1682   -0.3059    0.0000 C   0  0  0  0  0  0  0  0  0  0  0  0
   -1.9133    0.4787    0.0000 C   0  0  0  0  0  0  0  0  0  0  0  0
  1 17  1  0
  1 22  1  0
  2 12  1  0
  3 13  2  0
  4 14  2  0
  5  9  1  0
  5 25  1  0
  6 24  1  0
  6 33  1  0
  7 26  1  0
  7 34  1  0
  8 10  1  0
  8 13  1  0
  8 16  1  0
  9 16  2  0
 10 11  1  0
 10 15  1  0
 11 12  2  0
 11 14  1  0
 12 13  1  0
 14 17  1  0
 15 18  1  0
 15 19  2  0
 16 20  1  0
 17 21  2  0
 18 24  2  0
 19 27  1  0
 20 25  2  0
 21 23  1  0
 22 23  1  0
 22 28  2  0
 23 29  2  0
 24 26  1  0
 25 32  1  0
 26 27  2  0
 28 30  1  0
 29 31  1  0
 30 31  2  0
M  END
> <chembl_id>
CHEMBL1605561

> <chembl_pref_name>
None

$$$$
CHEMBL4749450
     RDKit          2D

 23 26  0  0  0  0  0  0  0  0999 V2000
    7.1302  -10.2999    0.0000 C   0  0  0  0  0  0  0  0  0  0  0  0
    7.7714   -9.6163    0.0000 C   0  0  0  0  0  0  0  0  0  0  0  0
    7.9347  -10.0748    0.0000 C   0  0  0  0  0  0  0  0  0  0  0  0
    8.4828   -9.8789    0.0000 C   0  0  0  0  0  0  0  0  0  0  0  0
    8.6873  -10.3776    0.0000 C   0  0  0  0  0  0  0  0  0  0  0  0
    9.2307   -9.6934    0.0000 C   0  0  0  0  0  0  0  0  0  0  0  0
    7.9320   -9.2224    0.0000 O   0  0  0  0  0  0  0  0  0  0  0  0
    8.4885   -8.5644    0.0000 C   0  0  0  0  0  0  0  0  0  0  0  0
    7.7670   -8.8209    0.0000 O   0  0  0  0  0  0  0  0  0  0  0  0
    9.2365   -8.8745    0.0000 O   0  0  0  0  0  0  0  0  0  0  0  0
    7.7736   -6.4999    0.0000 C   0  0  0  0  0  0  0  0  0  0  0  0
    7.7724   -7.3273    0.0000 C   0  0  0  0  0  0  0  0  0  0  0  0
    8.4872   -7.7401    0.0000 C   0  0  0  0  0  0  0  0  0  0  0  0
    9.2037   -7.3268    0.0000 C   0  0  0  0  0  0  0  0  0  0  0  0
    9.2008   -6.4963    0.0000 C   0  0  0  0  0  0  0  0  0  0  0  0
    8.4854   -6.0872    0.0000 N   0  0  0  0  0  0  0  0  0  0  0  0
    7.0576   -7.7392    0.0000 C   0  0  0  0  0  0  0  0  0  0  0  0
    6.3434   -7.3262    0.0000 O   0  0  0  0  0  0  0  0  0  0  0  0
    9.9137   -6.0811    0.0000 C   0  0  0  0  0  0  0  0  0  0  0  0
    9.9188   -7.7382    0.0000 O   0  0  0  0  0  0  0  0  0  0  0  0
    6.9709   -9.3958    0.0000 O   0  0  0  0  0  0  0  0  0  0  0  0
   10.0551   -9.6608    0.0000 O   0  0  0  0  0  0  0  0  0  0  0  0
    7.9291  -10.8958    0.0000 O   0  0  0  0  0  0  0  0  0  0  0  0
  1  2  1  0
  1  3  1  0
  2  4  1  0
  3  5  1  0
  4  6  1  0
  5  6  1  0
  7  8  1  0
  3  7  1  0
  2  9  1  0
  6 10  1  0
 10  8  1  0
  8  9  1  0
 11 12  2  0
 12 13  1  0
 13 14  2  0
 14 15  1  0
 15 16  2  0
 16 11  1  0
 12 17  1  0
 17 18  1  0
 15 19  1  0
 14 20  1  0
 13  8  1  0
  2 21  1  0
  6 22  1  0
  3 23  1  0
M  END
> <chembl_id>
CHEMBL4749450

> <chembl_pref_name>
None

$$$$
CHEMBL4104041
     RDKit          2D

 16 17  0  0  0  0  0  0  0  0999 V2000
   18.6825  -10.8463    0.0000 C   0  0  0  0  0  0  0  0  0  0  0  0
   18.6814  -11.6659    0.0000 C   0  0  0  0  0  0  0  0  0  0  0  0
   19.3894  -12.0748    0.0000 C   0  0  0  0  0  0  0  0  0  0  0  0
   20.0991  -11.6654    0.0000 C   0  0  0  0  0  0  0  0  0  0  0  0
   20.0963  -10.8427    0.0000 C   0  0  0  0  0  0  0  0  0  0  0  0
   19.3877  -10.4375    0.0000 C   0  0  0  0  0  0  0  0  0  0  0  0
   19.3852   -9.6203    0.0000 C   0  0  0  0  0  0  0  0  0  0  0  0
   20.0917   -9.2096    0.0000 C   0  0  0  0  0  0  0  0  0  0  0  0
   20.7985   -9.6184    0.0000 C   0  0  0  0  0  0  0  0  0  0  0  0
   21.5045   -9.2084    0.0000 C   0  0  0  0  0  0  0  0  0  0  0  0
   21.5025   -8.3903    0.0000 C   0  0  0  0  0  0  0  0  0  0  0  0
   20.7886   -7.9840    0.0000 C   0  0  0  0  0  0  0  0  0  0  0  0
   20.0855   -8.3964    0.0000 C   0  0  0  0  0  0  0  0  0  0  0  0
   19.3892  -12.8920    0.0000 C   0  0  0  0  0  0  0  0  0  0  0  0
   20.0969  -13.3008    0.0000 N   0  0  0  0  0  0  0  0  0  0  0  0
   18.6763   -9.2138    0.0000 O   0  0  0  0  0  0  0  0  0  0  0  0
  1  2  2  0
  2  3  1  0
  3  4  2  0
  4  5  1  0
  5  6  2  0
  6  1  1  0
  6  7  1  0
  7  8  1  0
  8  9  2  0
  9 10  1  0
 10 11  2  0
 11 12  1  0
 12 13  2  0
 13  8  1  0
  3 14  1  0
 14 15  1  0
  7 16  2  0
M  END
> <chembl_id>
CHEMBL4104041

> <chembl_pref_name>
None

$$$$
CHEMBL3103512
     RDKit          2D

 19 21  0  0  0  0  0  0  0  0999 V2000
   15.2239   -4.7050    0.0000 C   0  0  0  0  0  0  0  0  0  0  0  0
   15.2228   -5.5245    0.0000 C   0  0  0  0  0  0  0  0  0  0  0  0
   15.9308   -5.9335    0.0000 C   0  0  0  0  0  0  0  0  0  0  0  0
   15.9290   -4.2961    0.0000 C   0  0  0  0  0  0  0  0  0  0  0  0
   16.6377   -4.7014    0.0000 C   0  0  0  0  0  0  0  0  0  0  0  0
   16.6379   -5.5246    0.0000 C   0  0  0  0  0  0  0  0  0  0  0  0
   17.4209   -5.7788    0.0000 O   0  0  0  0  0  0  0  0  0  0  0  0
   17.9046   -5.1126    0.0000 C   0  0  0  0  0  0  0  0  0  0  0  0
   17.4205   -4.4469    0.0000 N   0  0  0  0  0  0  0  0  0  0  0  0
   18.7186   -5.1109    0.0000 C   0  0  0  0  0  0  0  0  0  0  0  0
   19.1268   -5.8201    0.0000 C   0  0  0  0  0  0  0  0  0  0  0  0
   19.9432   -5.8202    0.0000 C   0  0  0  0  0  0  0  0  0  0  0  0
   20.3524   -5.1118    0.0000 C   0  0  0  0  0  0  0  0  0  0  0  0
   19.1241   -4.4053    0.0000 C   0  0  0  0  0  0  0  0  0  0  0  0
   19.9386   -4.4040    0.0000 C   0  0  0  0  0  0  0  0  0  0  0  0
   15.9262   -3.4752    0.0000 C   0  0  0  0  0  0  0  0  0  0  0  0
   16.6326   -3.0645    0.0000 O   0  0  0  0  0  0  0  0  0  0  0  0
   15.2172   -3.0688    0.0000 O   0  0  0  0  0  0  0  0  0  0  0  0
   18.7142   -3.6983    0.0000 O   0  0  0  0  0  0  0  0  0  0  0  0
  1  2  2  0
  2  3  1  0
  3  6  2  0
  5  4  2  0
  4  1  1  0
  5  6  1  0
  6  7  1  0
  7  8  1  0
  8  9  2  0
  9  5  1  0
 10 11  2  0
 11 12  1  0
 12 13  2  0
 13 15  1  0
 14 10  1  0
  8 10  1  0
 14 15  2  0
 16 17  2  0
 16 18  1  0
  4 16  1  0
 14 19  1  0
M  END
> <chembl_id>
CHEMBL3103512

> <chembl_pref_name>
None

$$$$
CHEMBL4095326
     RDKit          2D

 34 36  0  0  0  0  0  0  0  0999 V2000
    4.2552   -5.0559    0.0000 O   0  0  0  0  0  0  0  0  0  0  0  0
    3.8507   -4.3501    0.0000 S   0  0  0  0  0  0  0  0  0  0  0  0
    3.4417   -5.0533    0.0000 O   0  0  0  0  0  0  0  0  0  0  0  0
   11.9277   -2.0100    0.0000 O   0  0  0  0  0  0  0  0  0  0  0  0
   12.3404   -2.7198    0.0000 S   0  0  0  0  0  0  0  0  0  0  0  0
   12.7488   -2.0075    0.0000 O   0  0  0  0  0  0  0  0  0  0  0  0
    7.3919   -3.1202    0.0000 C   0  0  0  0  0  0  0  0  0  0  0  0
    7.3919   -3.9374    0.0000 N   0  0  0  0  0  0  0  0  0  0  0  0
    8.0971   -4.3418    0.0000 C   0  0  0  0  0  0  0  0  0  0  0  0
    8.8024   -3.9374    0.0000 C   0  0  0  0  0  0  0  0  0  0  0  0
    8.8024   -3.1202    0.0000 N   0  0  0  0  0  0  0  0  0  0  0  0
    8.0971   -2.7075    0.0000 C   0  0  0  0  0  0  0  0  0  0  0  0
    9.5113   -2.7137    0.0000 C   0  0  0  0  0  0  0  0  0  0  0  0
   10.2178   -3.1243    0.0000 C   0  0  0  0  0  0  0  0  0  0  0  0
   10.9267   -2.7178    0.0000 C   0  0  0  0  0  0  0  0  0  0  0  0
   11.6332   -3.1285    0.0000 N   0  0  0  0  0  0  0  0  0  0  0  0
   13.0487   -3.1326    0.0000 C   0  0  0  0  0  0  0  0  0  0  0  0
   13.0410   -3.9508    0.0000 C   0  0  0  0  0  0  0  0  0  0  0  0
   13.7467   -4.3614    0.0000 C   0  0  0  0  0  0  0  0  0  0  0  0
   14.4566   -3.9548    0.0000 C   0  0  0  0  0  0  0  0  0  0  0  0
   14.4564   -3.1334    0.0000 C   0  0  0  0  0  0  0  0  0  0  0  0
   13.7501   -2.7265    0.0000 C   0  0  0  0  0  0  0  0  0  0  0  0
    6.6848   -4.3470    0.0000 C   0  0  0  0  0  0  0  0  0  0  0  0
    5.9765   -3.9394    0.0000 C   0  0  0  0  0  0  0  0  0  0  0  0
    5.2693   -4.3491    0.0000 C   0  0  0  0  0  0  0  0  0  0  0  0
    4.5610   -3.9415    0.0000 N   0  0  0  0  0  0  0  0  0  0  0  0
    3.1456   -3.9435    0.0000 C   0  0  0  0  0  0  0  0  0  0  0  0
    3.1437   -3.1273    0.0000 C   0  0  0  0  0  0  0  0  0  0  0  0
    2.4363   -2.7198    0.0000 C   0  0  0  0  0  0  0  0  0  0  0  0
    1.7304   -3.1295    0.0000 C   0  0  0  0  0  0  0  0  0  0  0  0
    1.7349   -3.9509    0.0000 C   0  0  0  0  0  0  0  0  0  0  0  0
    2.4400   -4.3547    0.0000 C   0  0  0  0  0  0  0  0  0  0  0  0
    1.0212   -2.7236    0.0000 Cl  0  0  0  0  0  0  0  0  0  0  0  0
   15.1636   -4.3645    0.0000 Cl  0  0  0  0  0  0  0  0  0  0  0  0
  2  1  2  0
  3  2  2  0
  5  4  2  0
  6  5  2  0
  7  8  1  0
  7 12  1  0
  8  9  1  0
  9 10  1  0
 10 11  1  0
 11 12  1  0
 11 13  1  0
 13 14  1  0
 14 15  1  0
 15 16  1  0
 16  5  1  0
  5 17  1  0
 17 18  2  0
 18 19  1  0
 19 20  2  0
 20 21  1  0
 21 22  2  0
 22 17  1  0
  8 23  1  0
 23 24  1  0
 24 25  1  0
 25 26  1  0
 26  2  1  0
  2 27  1  0
 27 28  2  0
 28 29  1  0
 29 30  2  0
 30 31  1  0
 31 32  2  0
 32 27  1  0
 30 33  1  0
 20 34  1  0
M  END
> <chembl_id>
CHEMBL4095326

> <chembl_pref_name>
None

$$$$
CHEMBL3962118
     RDKit          2D

 22 24  0  0  0  0  0  0  0  0999 V2000
   12.5428  -21.0381    0.0000 C   0  0  0  0  0  0  0  0  0  0  0  0
   11.8337  -20.6295    0.0000 C   0  0  0  0  0  0  0  0  0  0  0  0
   11.1288  -21.0381    0.0000 C   0  0  0  0  0  0  0  0  0  0  0  0
   10.4197  -20.6295    0.0000 C   0  0  0  0  0  0  0  0  0  0  0  0
   10.4197  -19.8123    0.0000 C   0  0  0  0  0  0  0  0  0  0  0  0
   11.1288  -19.4037    0.0000 C   0  0  0  0  0  0  0  0  0  0  0  0
   11.8337  -19.8123    0.0000 C   0  0  0  0  0  0  0  0  0  0  0  0
   13.2519  -20.6295    0.0000 O   0  0  0  0  0  0  0  0  0  0  0  0
   12.5428  -21.8553    0.0000 N   0  0  0  0  0  0  0  0  0  0  0  0
   11.8337  -22.2639    0.0000 N   0  0  0  0  0  0  0  0  0  0  0  0
   11.1288  -21.8553    0.0000 O   0  0  0  0  0  0  0  0  0  0  0  0
   12.5428  -24.3068    0.0000 C   0  0  0  0  0  0  0  0  0  0  0  0
   11.8337  -24.7154    0.0000 N   0  0  0  0  0  0  0  0  0  0  0  0
   11.1288  -24.3068    0.0000 C   0  0  0  0  0  0  0  0  0  0  0  0
   11.1288  -23.4897    0.0000 C   0  0  0  0  0  0  0  0  0  0  0  0
   11.8337  -23.0811    0.0000 C   0  0  0  0  0  0  0  0  0  0  0  0
   12.5428  -23.4897    0.0000 N   0  0  0  0  0  0  0  0  0  0  0  0
   10.3474  -23.2391    0.0000 C   0  0  0  0  0  0  0  0  0  0  0  0
    9.8714  -23.8982    0.0000 C   0  0  0  0  0  0  0  0  0  0  0  0
   10.3474  -24.5615    0.0000 S   0  0  0  0  0  0  0  0  0  0  0  0
   10.0969  -22.4619    0.0000 C   0  0  0  0  0  0  0  0  0  0  0  0
    9.0542  -23.8982    0.0000 Cl  0  0  0  0  0  0  0  0  0  0  0  0
  1  2  1  0
  2  3  1  0
  3  4  2  0
  4  5  1  0
  5  6  2  0
  6  7  1  0
  2  7  2  0
  9 10  1  0
  1  8  2  0
  1  9  1  0
  3 11  1  0
 12 13  1  0
 13 14  2  0
 14 15  1  0
 15 16  2  0
 16 17  1  0
 12 17  2  0
 18 19  2  0
 19 20  1  0
 14 20  1  0
 15 18  1  0
 18 21  1  0
 19 22  1  0
 10 16  1  0
M  END
> <chembl_id>
CHEMBL3962118

> <chembl_pref_name>
None

$$$$
CHEMBL164
     RDKit          2D

 23 25  0  0  0  0  0  0  0  0999 V2000
   -2.6660   -0.8268    0.0000 C   0  0  0  0  0  0  0  0  0  0  0  0
   -1.9515   -1.2393    0.0000 C   0  0  0  0  0  0  0  0  0  0  0  0
   -1.2371   -0.8268    0.0000 C   0  0  0  0  0  0  0  0  0  0  0  0
   -1.2371   -0.0018    0.0000 C   0  0  0  0  0  0  0  0  0  0  0  0
   -1.9515    0.4107    0.0000 C   0  0  0  0  0  0  0  0  0  0  0  0
   -2.6660   -0.0018    0.0000 C   0  0  0  0  0  0  0  0  0  0  0  0
   -0.5226   -1.2393    0.0000 C   0  0  0  0  0  0  0  0  0  0  0  0
    0.1919   -0.8268    0.0000 C   0  0  0  0  0  0  0  0  0  0  0  0
    0.1919   -0.0018    0.0000 C   0  0  0  0  0  0  0  0  0  0  0  0
    0.9064    0.4107    0.0000 C   0  0  0  0  0  0  0  0  0  0  0  0
    0.9064    1.2357    0.0000 C   0  0  0  0  0  0  0  0  0  0  0  0
    1.6208    1.6482    0.0000 C   0  0  0  0  0  0  0  0  0  0  0  0
    2.3353    1.2357    0.0000 C   0  0  0  0  0  0  0  0  0  0  0  0
    2.3353    0.4107    0.0000 C   0  0  0  0  0  0  0  0  0  0  0  0
    1.6208   -0.0018    0.0000 C   0  0  0  0  0  0  0  0  0  0  0  0
   -0.5226    0.4107    0.0000 O   0  0  0  0  0  0  0  0  0  0  0  0
   -0.5226   -2.0643    0.0000 O   0  0  0  0  0  0  0  0  0  0  0  0
    3.0498   -0.0018    0.0000 O   0  0  0  0  0  0  0  0  0  0  0  0
    3.0498    1.6482    0.0000 O   0  0  0  0  0  0  0  0  0  0  0  0
    1.6208    2.4732    0.0000 O   0  0  0  0  0  0  0  0  0  0  0  0
    0.9064   -1.2393    0.0000 O   0  0  0  0  0  0  0  0  0  0  0  0
   -3.3805    0.4107    0.0000 O   0  0  0  0  0  0  0  0  0  0  0  0
   -1.9515   -2.0643    0.0000 O   0  0  0  0  0  0  0  0  0  0  0  0
  1  2  2  0
  1  6  1  0
  2  3  1  0
  2 23  1  0
  3  4  2  0
  3  7  1  0
  4  5  1  0
  4 16  1  0
  5  6  2  0
  6 22  1  0
  8  7  1  0
  7 17  2  0
  8  9  2  0
  8 21  1  0
  9 10  1  0
  9 16  1  0
 10 11  2  0
 10 15  1  0
 11 12  1  0
 12 13  2  0
 12 20  1  0
 13 14  1  0
 13 19  1  0
 14 15  2  0
 14 18  1  0
M  END
> <chembl_id>
CHEMBL164

> <chembl_pref_name>
MYRICETIN

$$$$
CHEMBL492772
     RDKit          2D

 23 24  0  0  0  0  0  0  0  0999 V2000
    6.5295   -8.9043    0.0000 C   0  0  0  0  0  0  0  0  0  0  0  0
    7.2440   -8.4918    0.0000 C   0  0  0  0  0  0  0  0  0  0  0  0
    7.2440   -7.6668    0.0000 C   0  0  0  0  0  0  0  0  0  0  0  0
    6.5295   -7.2543    0.0000 C   0  0  0  0  0  0  0  0  0  0  0  0
    5.8150   -7.6668    0.0000 C   0  0  0  0  0  0  0  0  0  0  0  0
    5.8150   -8.4918    0.0000 C   0  0  0  0  0  0  0  0  0  0  0  0
    5.1005   -7.2543    0.0000 C   0  0  0  0  0  0  0  0  0  0  0  0
    4.3861   -7.6668    0.0000 C   0  0  0  0  0  0  0  0  0  0  0  0
    5.1005   -6.4293    0.0000 O   0  0  0  0  0  0  0  0  0  0  0  0
    3.6716   -7.2543    0.0000 C   0  0  0  0  0  0  0  0  0  0  0  0
    2.9571   -7.6668    0.0000 C   0  0  0  0  0  0  0  0  0  0  0  0
    3.6716   -6.4293    0.0000 O   0  0  0  0  0  0  0  0  0  0  0  0
    2.2427   -7.2543    0.0000 O   0  0  0  0  0  0  0  0  0  0  0  0
    2.9571   -8.4918    0.0000 O   0  0  0  0  0  0  0  0  0  0  0  0
    6.5295   -6.4293    0.0000 O   0  0  0  0  0  0  0  0  0  0  0  0
    5.8150   -6.0168    0.0000 C   0  0  0  0  0  0  0  0  0  0  0  0
    5.8150   -5.1918    0.0000 C   0  0  0  0  0  0  0  0  0  0  0  0
    5.1005   -4.7793    0.0000 C   0  0  0  0  0  0  0  0  0  0  0  0
    5.1005   -3.9543    0.0000 C   0  0  0  0  0  0  0  0  0  0  0  0
    5.8150   -3.5418    0.0000 C   0  0  0  0  0  0  0  0  0  0  0  0
    6.5295   -3.9543    0.0000 C   0  0  0  0  0  0  0  0  0  0  0  0
    6.5295   -4.7793    0.0000 C   0  0  0  0  0  0  0  0  0  0  0  0
    5.8150   -2.7168    0.0000 Cl  0  0  0  0  0  0  0  0  0  0  0  0
  5  6  2  0
 10 12  1  0
  6  1  1  0
 11 13  2  0
  1  2  2  0
 11 14  1  0
  5  7  1  0
  4 15  1  0
  3  4  2  0
 15 16  1  0
  7  8  1  0
 16 17  1  0
 17 18  2  0
  7  9  2  0
 18 19  1  0
  4  5  1  0
 19 20  2  0
  8 10  2  0
 20 21  1  0
  2  3  1  0
 21 22  2  0
 22 17  1  0
 10 11  1  0
 20 23  1  0
M  END
> <chembl_id>
CHEMBL492772

> <chembl_pref_name>
None

$$$$
CHEMBL1338595
     RDKit          2D

 37 40  0  0  0  0  0  0  0  0999 V2000
    7.8148    0.7145    0.0000 O   0  0  0  0  0  0  0  0  0  0  0  0
    6.1648   -0.7145    0.0000 O   0  0  0  0  0  0  0  0  0  0  0  0
    7.8148   -0.7145    0.0000 O   0  0  0  0  0  0  0  0  0  0  0  0
    6.1648    0.7145    0.0000 O   0  0  0  0  0  0  0  0  0  0  0  0
    7.4023    0.0000    0.0000 C   0  0  0  0  0  0  0  0  0  0  0  0
    6.5773    0.0000    0.0000 C   0  0  0  0  0  0  0  0  0  0  0  0
    1.1154    0.2758    0.0000 S   0  0  0  0  0  0  0  0  0  0  0  0
   -0.4245    2.3953    0.0000 O   0  0  0  0  0  0  0  0  0  0  0  0
   -2.1315    1.8407    0.0000 O   0  0  0  0  0  0  0  0  0  0  0  0
   -2.8852    0.3814    0.0000 O   0  0  0  0  0  0  0  0  0  0  0  0
   -2.6584   -1.3267    0.0000 O   0  0  0  0  0  0  0  0  0  0  0  0
    0.3403   -2.8627    0.0000 O   0  0  0  0  0  0  0  0  0  0  0  0
   -0.1945    0.9432    0.0000 N   0  0  0  0  0  0  0  0  0  0  0  0
    1.1154    1.6107    0.0000 N   0  0  0  0  0  0  0  0  0  0  0  0
   -0.6795    0.2758    0.0000 C   0  0  0  0  0  0  0  0  0  0  0  0
   -1.4641    0.5307    0.0000 C   0  0  0  0  0  0  0  0  0  0  0  0
   -0.6795    1.6107    0.0000 C   0  0  0  0  0  0  0  0  0  0  0  0
   -1.4641    1.3557    0.0000 C   0  0  0  0  0  0  0  0  0  0  0  0
    0.6305    0.9432    0.0000 C   0  0  0  0  0  0  0  0  0  0  0  0
   -0.4245   -0.5088    0.0000 C   0  0  0  0  0  0  0  0  0  0  0  0
   -2.1315    0.0458    0.0000 C   0  0  0  0  0  0  0  0  0  0  0  0
    1.9000    0.5307    0.0000 C   0  0  0  0  0  0  0  0  0  0  0  0
    1.9000    1.3557    0.0000 C   0  0  0  0  0  0  0  0  0  0  0  0
   -2.0453   -0.7747    0.0000 C   0  0  0  0  0  0  0  0  0  0  0  0
    0.3824   -0.6804    0.0000 C   0  0  0  0  0  0  0  0  0  0  0  0
   -0.9766   -1.1219    0.0000 C   0  0  0  0  0  0  0  0  0  0  0  0
    2.6145    0.1182    0.0000 C   0  0  0  0  0  0  0  0  0  0  0  0
    2.6145    1.7682    0.0000 C   0  0  0  0  0  0  0  0  0  0  0  0
   -1.3308   -1.1872    0.0000 C   0  0  0  0  0  0  0  0  0  0  0  0
    3.3289    0.5307    0.0000 C   0  0  0  0  0  0  0  0  0  0  0  0
    0.6374   -1.4650    0.0000 C   0  0  0  0  0  0  0  0  0  0  0  0
   -0.7216   -1.9065    0.0000 C   0  0  0  0  0  0  0  0  0  0  0  0
    3.3289    1.3557    0.0000 C   0  0  0  0  0  0  0  0  0  0  0  0
    0.0853   -2.0781    0.0000 C   0  0  0  0  0  0  0  0  0  0  0  0
   -2.3228   -2.0804    0.0000 C   0  0  0  0  0  0  0  0  0  0  0  0
   -1.5024   -1.9941    0.0000 C   0  0  0  0  0  0  0  0  0  0  0  0
    4.0434    0.1182    0.0000 C   0  0  0  0  0  0  0  0  0  0  0  0
  1  5  2  0
  2  6  2  0
  3  5  1  0
  4  6  1  0
  5  6  1  0
  7 19  1  0
  7 22  1  0
  8 17  2  0
  9 18  1  0
 10 21  2  0
 11 24  1  0
 11 35  1  0
 12 34  1  0
 13 15  1  0
 13 17  1  0
 13 19  1  0
 14 19  2  0
 14 23  1  0
 15 16  1  0
 15 20  1  0
 16 18  2  0
 16 21  1  0
 17 18  1  0
 20 25  2  0
 20 26  1  0
 21 24  1  0
 22 23  1  0
 22 27  2  0
 23 28  2  0
 24 29  2  0
 25 31  1  0
 26 32  2  0
 27 30  1  0
 28 33  1  0
 29 36  1  0
 30 33  2  0
 30 37  1  0
 31 34  2  0
 32 34  1  0
 35 36  2  0
M  END
> <chembl_id>
CHEMBL1338595

> <chembl_pref_name>
None

$$$$
CHEMBL1822705
     RDKit          2D

 60 69  0  0  0  0  0  0  0  0999 V2000
   -4.5654   -1.4173    0.0000 C   0  0  0  0  0  0  0  0  0  0  0  0
   -4.5664   -2.2147    0.0000 C   0  0  0  0  0  0  0  0  0  0  0  0
   -3.8798   -2.6105    0.0000 C   0  0  0  0  0  0  0  0  0  0  0  0
   -3.8815   -1.0175    0.0000 C   0  0  0  0  0  0  0  0  0  0  0  0
   -3.1947   -1.4138    0.0000 C   0  0  0  0  0  0  0  0  0  0  0  0
   -3.1900   -2.2147    0.0000 C   0  0  0  0  0  0  0  0  0  0  0  0
   -2.4264   -2.4581    0.0000 N   0  0  0  0  0  0  0  0  0  0  0  0
   -1.9584   -1.8050    0.0000 C   0  0  0  0  0  0  0  0  0  0  0  0
   -2.4339   -1.1658    0.0000 N   0  0  0  0  0  0  0  0  0  0  0  0
   -5.2866   -1.0023    0.0000 N   0  0  0  0  0  0  0  0  0  0  0  0
   -5.2847   -0.1746    0.0000 C   0  0  0  0  0  0  0  0  0  0  0  0
   -6.0047    0.2365    0.0000 C   0  0  0  0  0  0  0  0  0  0  0  0
   -6.7189   -0.1715    0.0000 N   0  0  0  0  0  0  0  0  0  0  0  0
   -6.7255   -0.9992    0.0000 C   0  0  0  0  0  0  0  0  0  0  0  0
   -6.0095   -1.4189    0.0000 C   0  0  0  0  0  0  0  0  0  0  0  0
   -7.4325    0.2423    0.0000 C   0  0  0  0  0  0  0  0  0  0  0  0
   -1.1336   -1.7974    0.0000 C   0  0  0  0  0  0  0  0  0  0  0  0
   -0.7188   -2.5143    0.0000 C   0  0  0  0  0  0  0  0  0  0  0  0
    0.1071   -2.5098    0.0000 C   0  0  0  0  0  0  0  0  0  0  0  0
   -0.7293   -1.0878    0.0000 C   0  0  0  0  0  0  0  0  0  0  0  0
    0.0952   -1.0799    0.0000 C   0  0  0  0  0  0  0  0  0  0  0  0
    0.5191   -1.7888    0.0000 C   0  0  0  0  0  0  0  0  0  0  0  0
    1.3303   -1.6113    0.0000 N   0  0  0  0  0  0  0  0  0  0  0  0
    1.4083   -0.7844    0.0000 C   0  0  0  0  0  0  0  0  0  0  0  0
    0.6454   -0.4547    0.0000 N   0  0  0  0  0  0  0  0  0  0  0  0
    2.1233   -0.3690    0.0000 C   0  0  0  0  0  0  0  0  0  0  0  0
    2.8434   -0.7762    0.0000 N   0  0  0  0  0  0  0  0  0  0  0  0
    3.5546   -0.3606    0.0000 C   0  0  0  0  0  0  0  0  0  0  0  0
    3.5498    0.4660    0.0000 O   0  0  0  0  0  0  0  0  0  0  0  0
    4.2704   -0.7677    0.0000 C   0  0  0  0  0  0  0  0  0  0  0  0
    4.9856   -0.3523    0.0000 C   0  0  0  0  0  0  0  0  0  0  0  0
    5.7055   -0.7595    0.0000 C   0  0  0  0  0  0  0  0  0  0  0  0
    6.4167   -0.3441    0.0000 N   0  0  0  0  0  0  0  0  0  0  0  0
    5.7103   -1.5862    0.0000 O   0  0  0  0  0  0  0  0  0  0  0  0
    7.1368   -0.7512    0.0000 C   0  0  0  0  0  0  0  0  0  0  0  0
    7.8518   -0.3355    0.0000 C   0  0  0  0  0  0  0  0  0  0  0  0
    8.6372   -0.5860    0.0000 N   0  0  0  0  0  0  0  0  0  0  0  0
    7.8438    0.4877    0.0000 N   0  0  0  0  0  0  0  0  0  0  0  0
    8.6291    0.7524    0.0000 C   0  0  0  0  0  0  0  0  0  0  0  0
    9.1142    0.0847    0.0000 C   0  0  0  0  0  0  0  0  0  0  0  0
    9.9330    0.1782    0.0000 C   0  0  0  0  0  0  0  0  0  0  0  0
   10.2674    0.9313    0.0000 C   0  0  0  0  0  0  0  0  0  0  0  0
    9.7730    1.5991    0.0000 C   0  0  0  0  0  0  0  0  0  0  0  0
    8.9560    1.5061    0.0000 C   0  0  0  0  0  0  0  0  0  0  0  0
   11.0920    0.9538    0.0000 C   0  0  0  0  0  0  0  0  0  0  0  0
   11.5884    0.2929    0.0000 N   0  0  0  0  0  0  0  0  0  0  0  0
   11.5607    1.6310    0.0000 N   0  0  0  0  0  0  0  0  0  0  0  0
   12.3527    1.3955    0.0000 C   0  0  0  0  0  0  0  0  0  0  0  0
   12.3680    0.5711    0.0000 C   0  0  0  0  0  0  0  0  0  0  0  0
   13.0897    0.1715    0.0000 C   0  0  0  0  0  0  0  0  0  0  0  0
   13.7971    0.5993    0.0000 C   0  0  0  0  0  0  0  0  0  0  0  0
   13.7746    1.4273    0.0000 C   0  0  0  0  0  0  0  0  0  0  0  0
   13.0517    1.8190    0.0000 C   0  0  0  0  0  0  0  0  0  0  0  0
   14.4771    1.8582    0.0000 N   0  0  0  0  0  0  0  0  0  0  0  0
   15.2086    1.4656    0.0000 C   0  0  0  0  0  0  0  0  0  0  0  0
   15.9093    1.9018    0.0000 C   0  0  0  0  0  0  0  0  0  0  0  0
   15.8852    2.7285    0.0000 N   0  0  0  0  0  0  0  0  0  0  0  0
   15.1543    3.1171    0.0000 C   0  0  0  0  0  0  0  0  0  0  0  0
   14.4468    2.6831    0.0000 C   0  0  0  0  0  0  0  0  0  0  0  0
   16.5861    3.1613    0.0000 C   0  0  0  0  0  0  0  0  0  0  0  0
 27 28  1  0
 11 12  1  0
 28 29  2  0
 12 13  1  0
 28 30  1  0
 13 14  1  0
 30 31  1  0
 14 15  1  0
 31 32  1  0
  1 10  1  0
 32 33  1  0
  5  4  2  0
 32 34  2  0
 13 16  1  0
 33 35  1  0
  6  7  1  0
 35 36  1  0
 36 37  1  0
  7  8  2  0
 17 18  2  0
 37 40  1  0
 39 38  1  0
 38 36  2  0
  8  9  1  0
 18 19  1  0
 39 40  2  0
 19 22  2  0
 40 41  1  0
  9  5  1  0
 41 42  2  0
 21 20  2  0
 42 43  1  0
 20 17  1  0
 43 44  2  0
 44 39  1  0
 45 46  2  0
  8 17  1  0
 21 22  1  0
 10 11  1  0
 46 49  1  0
 48 47  1  0
 47 45  1  0
 42 45  1  0
  4  1  1  0
  5  6  1  0
 48 49  2  0
 49 50  1  0
  2  3  1  0
 50 51  2  0
 22 23  1  0
 51 52  1  0
 23 24  2  0
 52 53  2  0
 53 48  1  0
 54 55  1  0
 24 25  1  0
 25 21  1  0
  3  6  2  0
 24 26  1  0
  1  2  2  0
 26 27  1  0
 54 59  1  0
 55 56  1  0
 56 57  1  0
 57 58  1  0
 58 59  1  0
 52 54  1  0
 10 15  1  0
 57 60  1  0
M  END
> <chembl_id>
CHEMBL1822705

> <chembl_pref_name>
None

$$$$
CHEMBL3984966
     RDKit          2D

 25 28  0  0  0  0  0  0  0  0999 V2000
   15.1119  -20.8608    0.0000 C   0  0  0  0  0  0  0  0  0  0  0  0
   15.8316  -20.4509    0.0000 C   0  0  0  0  0  0  0  0  0  0  0  0
   16.5394  -20.8699    0.0000 C   0  0  0  0  0  0  0  0  0  0  0  0
   17.2591  -20.4600    0.0000 C   0  0  0  0  0  0  0  0  0  0  0  0
   17.2627  -19.6350    0.0000 C   0  0  0  0  0  0  0  0  0  0  0  0
   16.5506  -19.2200    0.0000 C   0  0  0  0  0  0  0  0  0  0  0  0
   15.8352  -19.6259    0.0000 C   0  0  0  0  0  0  0  0  0  0  0  0
   14.4000  -20.4417    0.0000 O   0  0  0  0  0  0  0  0  0  0  0  0
   15.1085  -21.6858    0.0000 N   0  0  0  0  0  0  0  0  0  0  0  0
   14.3888  -22.0917    0.0000 N   0  0  0  0  0  0  0  0  0  0  0  0
   15.0938  -24.1607    0.0000 C   0  0  0  0  0  0  0  0  0  0  0  0
   14.3741  -24.5665    0.0000 N   0  0  0  0  0  0  0  0  0  0  0  0
   13.6621  -24.1515    0.0000 C   0  0  0  0  0  0  0  0  0  0  0  0
   13.6698  -23.3266    0.0000 C   0  0  0  0  0  0  0  0  0  0  0  0
   14.3853  -22.9167    0.0000 C   0  0  0  0  0  0  0  0  0  0  0  0
   15.0973  -23.3357    0.0000 N   0  0  0  0  0  0  0  0  0  0  0  0
   12.8834  -23.0664    0.0000 C   0  0  0  0  0  0  0  0  0  0  0  0
   12.3966  -23.7315    0.0000 C   0  0  0  0  0  0  0  0  0  0  0  0
   12.8751  -24.4014    0.0000 S   0  0  0  0  0  0  0  0  0  0  0  0
   11.5751  -23.6390    0.0000 C   0  0  0  0  0  0  0  0  0  0  0  0
   11.2446  -22.8815    0.0000 C   0  0  0  0  0  0  0  0  0  0  0  0
   11.7355  -22.2164    0.0000 C   0  0  0  0  0  0  0  0  0  0  0  0
   12.5528  -22.3089    0.0000 C   0  0  0  0  0  0  0  0  0  0  0  0
   15.8058  -24.5756    0.0000 C   0  0  0  0  0  0  0  0  0  0  0  0
   16.5360  -21.6949    0.0000 O   0  0  0  0  0  0  0  0  0  0  0  0
  1  2  1  0
  2  3  1  0
  3  4  2  0
  4  5  1  0
  5  6  2  0
  6  7  1  0
  2  7  2  0
  9 10  1  0
  1  8  2  0
  1  9  1  0
 11 12  1  0
 12 13  2  0
 13 14  1  0
 14 15  2  0
 15 16  1  0
 11 16  2  0
 17 18  2  0
 18 19  1  0
 20 21  1  0
 21 22  1  0
 22 23  1  0
 17 23  1  0
 18 20  1  0
 13 19  1  0
 14 17  1  0
 11 24  1  0
 10 15  1  0
  3 25  1  0
M  END
> <chembl_id>
CHEMBL3984966

> <chembl_pref_name>
None

$$$$
CHEMBL1813738
     RDKit          2D

 59 63  0  0  0  0  0  0  0  0999 V2000
    4.7042   -2.0546    0.0000 O   0  0  0  0  0  0  0  0  0  0  0  0
    3.9005   -1.8400    0.0000 S   0  0  0  0  0  0  0  0  0  0  0  0
    4.1164   -2.6435    0.0000 O   0  0  0  0  0  0  0  0  0  0  0  0
    1.0556    1.4468    0.0000 O   0  0  0  0  0  0  0  0  0  0  0  0
    0.3426    1.8655    0.0000 C   0  0  0  0  0  0  0  0  0  0  0  0
   -1.0769    2.6960    0.0000 N   0  0  0  0  0  0  0  0  0  0  0  0
   -1.0781    1.8677    0.0000 C   0  0  0  0  0  0  0  0  0  0  0  0
   -0.3656    1.4578    0.0000 C   0  0  0  0  0  0  0  0  0  0  0  0
   -0.3607    3.1086    0.0000 C   0  0  0  0  0  0  0  0  0  0  0  0
    0.3484    2.6935    0.0000 C   0  0  0  0  0  0  0  0  0  0  0  0
    1.0566    3.0983    0.0000 C   0  0  0  0  0  0  0  0  0  0  0  0
    1.0628    3.9200    0.0000 C   0  0  0  0  0  0  0  0  0  0  0  0
    0.3471    4.3308    0.0000 C   0  0  0  0  0  0  0  0  0  0  0  0
   -0.3586    3.9248    0.0000 C   0  0  0  0  0  0  0  0  0  0  0  0
    0.3456    5.1557    0.0000 O   0  0  0  0  0  0  0  0  0  0  0  0
    1.0615    5.5694    0.0000 C   0  0  0  0  0  0  0  0  0  0  0  0
   -1.7927    1.4552    0.0000 C   0  0  0  0  0  0  0  0  0  0  0  0
   -2.5064    1.8713    0.0000 C   0  0  0  0  0  0  0  0  0  0  0  0
   -3.2202    1.4557    0.0000 C   0  0  0  0  0  0  0  0  0  0  0  0
   -3.2209    0.6337    0.0000 C   0  0  0  0  0  0  0  0  0  0  0  0
   -2.5028    0.2216    0.0000 C   0  0  0  0  0  0  0  0  0  0  0  0
   -1.7893    0.6323    0.0000 C   0  0  0  0  0  0  0  0  0  0  0  0
    1.0536    0.6220    0.0000 C   0  0  0  0  0  0  0  0  0  0  0  0
    0.3329    0.2182    0.0000 C   0  0  0  0  0  0  0  0  0  0  0  0
    0.3304   -0.6054    0.0000 C   0  0  0  0  0  0  0  0  0  0  0  0
    1.0427   -1.0203    0.0000 C   0  0  0  0  0  0  0  0  0  0  0  0
    1.7598   -0.6065    0.0000 C   0  0  0  0  0  0  0  0  0  0  0  0
    1.7612    0.2151    0.0000 C   0  0  0  0  0  0  0  0  0  0  0  0
    1.0382   -1.8451    0.0000 C   0  0  0  0  0  0  0  0  0  0  0  0
   -0.3927   -1.8441    0.0000 C   0  0  0  0  0  0  0  0  0  0  0  0
   -1.1054   -2.2526    0.0000 C   0  0  0  0  0  0  0  0  0  0  0  0
   -0.3882   -1.0193    0.0000 O   0  0  0  0  0  0  0  0  0  0  0  0
   -1.1099   -3.0774    0.0000 C   0  0  0  0  0  0  0  0  0  0  0  0
   -1.8267   -3.4901    0.0000 C   0  0  0  0  0  0  0  0  0  0  0  0
   -0.3975   -3.4937    0.0000 C   0  0  0  0  0  0  0  0  0  0  0  0
   -1.1164   -3.9037    0.0000 C   0  0  0  0  0  0  0  0  0  0  0  0
    1.7505   -2.2614    0.0000 C   0  0  0  0  0  0  0  0  0  0  0  0
    2.4673   -1.8487    0.0000 O   0  0  0  0  0  0  0  0  0  0  0  0
    2.4625   -3.5025    0.0000 C   0  0  0  0  0  0  0  0  0  0  0  0
    2.4580   -4.3274    0.0000 C   0  0  0  0  0  0  0  0  0  0  0  0
    3.1794   -3.0898    0.0000 C   0  0  0  0  0  0  0  0  0  0  0  0
    3.1746   -4.7437    0.0000 C   0  0  0  0  0  0  0  0  0  0  0  0
    3.1701   -5.5685    0.0000 C   0  0  0  0  0  0  0  0  0  0  0  0
    2.4575    0.7075    0.0000 C   0  0  0  0  0  0  0  0  0  0  0  0
    3.9005   -3.5073    0.0000 O   0  0  0  0  0  0  0  0  0  0  0  0
    3.8782   -0.9277    0.0000 C   0  0  0  0  0  0  0  0  0  0  0  0
    3.2473   -0.4928    0.0000 C   0  0  0  0  0  0  0  0  0  0  0  0
    3.2440    0.3314    0.0000 C   0  0  0  0  0  0  0  0  0  0  0  0
   -2.5409   -2.2450    0.0000 C   0  0  0  0  0  0  0  0  0  0  0  0
   -2.5373   -3.0770    0.0000 O   0  0  0  0  0  0  0  0  0  0  0  0
   -3.2671   -1.8292    0.0000 O   0  0  0  0  0  0  0  0  0  0  0  0
   -3.9932   -2.2458    0.0000 C   0  0  0  0  0  0  0  0  0  0  0  0
   -4.7147   -1.8293    0.0000 C   0  0  0  0  0  0  0  0  0  0  0  0
   -3.9932   -3.0743    0.0000 C   0  0  0  0  0  0  0  0  0  0  0  0
   -4.7090   -2.6705    0.0000 C   0  0  0  0  0  0  0  0  0  0  0  0
   -1.8210   -1.8421    0.0000 N   0  0  0  0  0  0  0  0  0  0  0  0
    3.1933   -2.2649    0.0000 N   0  0  0  0  0  0  0  0  0  0  0  0
    1.7502   -3.0864    0.0000 N   0  0  0  0  0  0  0  0  0  0  0  0
    0.3225   -2.2554    0.0000 N   0  0  0  0  0  0  0  0  0  0  0  0
  2  1  2  0
  3  2  2  0
  4  5  1  0
  5 10  2  0
  9  6  2  0
  6  7  1  0
  7  8  2  0
  8  5  1  0
  9 10  1  0
 10 11  1  0
 11 12  2  0
 12 13  1  0
 13 14  2  0
 14  9  1  0
 13 15  1  0
 15 16  1  0
  7 17  1  0
 17 18  2  0
 18 19  1  0
 19 20  2  0
 20 21  1  0
 21 22  2  0
 22 17  1  0
  4 23  1  0
 23 24  2  0
 24 25  1  0
 25 26  2  0
 26 27  1  0
 27 28  2  0
 28 23  1  0
 29 26  1  0
 30 31  1  0
 30 32  2  0
 31 33  1  6
 33 34  1  0
 33 35  1  0
 33 36  1  0
 29 37  1  0
 37 38  2  0
 39 40  1  6
 39 41  1  0
 40 42  1  0
 42 43  1  0
 28 44  1  0
 41 45  2  0
  2 46  1  0
 47 46  1  0
 44 48  1  0
 48 47  2  0
 49 50  2  0
 49 51  1  0
 51 52  1  0
 52 53  1  0
 52 54  1  0
 52 55  1  0
 31 56  1  0
 49 56  1  0
 41 57  1  0
  2 57  1  0
 37 58  1  0
 39 58  1  0
 29 59  1  1
 30 59  1  0
M  END
> <chembl_id>
CHEMBL1813738

> <chembl_pref_name>
None

$$$$
CHEMBL4785529
     RDKit          2D

 22 25  0  0  0  0  0  0  0  0999 V2000
    4.8077   -7.2687    0.0000 C   0  0  0  0  0  0  0  0  0  0  0  0
    5.4429   -6.5915    0.0000 C   0  0  0  0  0  0  0  0  0  0  0  0
    5.6046   -7.0458    0.0000 C   0  0  0  0  0  0  0  0  0  0  0  0
    6.1434   -6.8517    0.0000 C   0  0  0  0  0  0  0  0  0  0  0  0
    6.3501   -7.3457    0.0000 C   0  0  0  0  0  0  0  0  0  0  0  0
    6.8883   -6.6679    0.0000 C   0  0  0  0  0  0  0  0  0  0  0  0
    5.5978   -6.2055    0.0000 O   0  0  0  0  0  0  0  0  0  0  0  0
    6.1532   -5.5497    0.0000 C   0  0  0  0  0  0  0  0  0  0  0  0
    5.4385   -5.8036    0.0000 O   0  0  0  0  0  0  0  0  0  0  0  0
    6.8941   -5.8568    0.0000 O   0  0  0  0  0  0  0  0  0  0  0  0
    5.4465   -3.5040    0.0000 C   0  0  0  0  0  0  0  0  0  0  0  0
    5.4454   -4.3235    0.0000 C   0  0  0  0  0  0  0  0  0  0  0  0
    6.1534   -4.7325    0.0000 C   0  0  0  0  0  0  0  0  0  0  0  0
    6.8631   -4.3230    0.0000 C   0  0  0  0  0  0  0  0  0  0  0  0
    6.8603   -3.5004    0.0000 C   0  0  0  0  0  0  0  0  0  0  0  0
    6.1516   -3.0951    0.0000 C   0  0  0  0  0  0  0  0  0  0  0  0
    7.5664   -3.0891    0.0000 O   0  0  0  0  0  0  0  0  0  0  0  0
    4.6225   -6.5871    0.0000 O   0  0  0  0  0  0  0  0  0  0  0  0
    5.5965   -7.8624    0.0000 O   0  0  0  0  0  0  0  0  0  0  0  0
    7.7049   -6.6357    0.0000 O   0  0  0  0  0  0  0  0  0  0  0  0
    6.1492   -2.2779    0.0000 O   0  0  0  0  0  0  0  0  0  0  0  0
    8.2757   -3.4950    0.0000 C   0  0  0  0  0  0  0  0  0  0  0  0
  1  2  1  0
  1  3  1  0
  2  4  1  0
  3  5  1  0
  4  6  1  0
  5  6  1  0
  7  8  1  0
  3  7  1  0
  2  9  1  0
  6 10  1  0
 10  8  1  0
  8  9  1  0
 11 12  2  0
 12 13  1  0
 13 14  2  0
 14 15  1  0
 15 16  2  0
 16 11  1  0
 15 17  1  0
 13  8  1  0
  2 18  1  0
  3 19  1  0
  6 20  1  0
 16 21  1  0
 17 22  1  0
M  END
> <chembl_id>
CHEMBL4785529

> <chembl_pref_name>
None

$$$$
CHEMBL1822707
     RDKit          2D

 62 71  0  0  0  0  0  0  0  0999 V2000
    4.7834   -8.5754    0.0000 C   0  0  0  0  0  0  0  0  0  0  0  0
    5.4929   -8.1553    0.0000 N   0  0  0  0  0  0  0  0  0  0  0  0
    4.7911   -9.4024    0.0000 O   0  0  0  0  0  0  0  0  0  0  0  0
    6.2140   -8.5622    0.0000 C   0  0  0  0  0  0  0  0  0  0  0  0
    6.9274   -8.1418    0.0000 C   0  0  0  0  0  0  0  0  0  0  0  0
    7.7136   -8.3911    0.0000 N   0  0  0  0  0  0  0  0  0  0  0  0
    6.9164   -7.3185    0.0000 N   0  0  0  0  0  0  0  0  0  0  0  0
    7.7009   -7.0539    0.0000 C   0  0  0  0  0  0  0  0  0  0  0  0
    8.1911   -7.7195    0.0000 C   0  0  0  0  0  0  0  0  0  0  0  0
    9.0097   -7.6225    0.0000 C   0  0  0  0  0  0  0  0  0  0  0  0
    9.3392   -6.8685    0.0000 C   0  0  0  0  0  0  0  0  0  0  0  0
    8.8440   -6.2028    0.0000 C   0  0  0  0  0  0  0  0  0  0  0  0
    8.0271   -6.2990    0.0000 C   0  0  0  0  0  0  0  0  0  0  0  0
   10.1640   -6.8429    0.0000 C   0  0  0  0  0  0  0  0  0  0  0  0
   10.6653   -7.5015    0.0000 N   0  0  0  0  0  0  0  0  0  0  0  0
   10.6329   -6.1648    0.0000 N   0  0  0  0  0  0  0  0  0  0  0  0
   11.4260   -6.3988    0.0000 C   0  0  0  0  0  0  0  0  0  0  0  0
   11.4439   -7.2235    0.0000 C   0  0  0  0  0  0  0  0  0  0  0  0
   12.1668   -7.6186    0.0000 C   0  0  0  0  0  0  0  0  0  0  0  0
   12.8724   -7.1903    0.0000 C   0  0  0  0  0  0  0  0  0  0  0  0
   12.8465   -6.3622    0.0000 C   0  0  0  0  0  0  0  0  0  0  0  0
   12.1231   -5.9708    0.0000 C   0  0  0  0  0  0  0  0  0  0  0  0
   13.6037   -6.0347    0.0000 N   0  0  0  0  0  0  0  0  0  0  0  0
   14.3164   -6.4578    0.0000 C   0  0  0  0  0  0  0  0  0  0  0  0
   15.0359   -6.0554    0.0000 C   0  0  0  0  0  0  0  0  0  0  0  0
   15.0489   -5.2280    0.0000 N   0  0  0  0  0  0  0  0  0  0  0  0
   14.3362   -4.8049    0.0000 C   0  0  0  0  0  0  0  0  0  0  0  0
   13.6106   -5.2089    0.0000 C   0  0  0  0  0  0  0  0  0  0  0  0
   15.7681   -4.8249    0.0000 C   0  0  0  0  0  0  0  0  0  0  0  0
   -6.9055   -9.2630    0.0000 C   0  0  0  0  0  0  0  0  0  0  0  0
   -6.9044  -10.0605    0.0000 C   0  0  0  0  0  0  0  0  0  0  0  0
   -6.2158  -10.4584    0.0000 C   0  0  0  0  0  0  0  0  0  0  0  0
   -6.2225   -8.8652    0.0000 C   0  0  0  0  0  0  0  0  0  0  0  0
   -5.5266   -9.2595    0.0000 C   0  0  0  0  0  0  0  0  0  0  0  0
   -5.5219  -10.0605    0.0000 C   0  0  0  0  0  0  0  0  0  0  0  0
   -4.7583  -10.3053    0.0000 N   0  0  0  0  0  0  0  0  0  0  0  0
   -4.2920   -9.6529    0.0000 C   0  0  0  0  0  0  0  0  0  0  0  0
   -4.7658   -9.0102    0.0000 N   0  0  0  0  0  0  0  0  0  0  0  0
   -7.6261   -8.8499    0.0000 N   0  0  0  0  0  0  0  0  0  0  0  0
   -7.6196   -8.0219    0.0000 C   0  0  0  0  0  0  0  0  0  0  0  0
   -8.3394   -7.6086    0.0000 C   0  0  0  0  0  0  0  0  0  0  0  0
   -9.0528   -8.0189    0.0000 N   0  0  0  0  0  0  0  0  0  0  0  0
   -9.0594   -8.8468    0.0000 C   0  0  0  0  0  0  0  0  0  0  0  0
   -8.3441   -9.2646    0.0000 C   0  0  0  0  0  0  0  0  0  0  0  0
   -9.7658   -7.6028    0.0000 C   0  0  0  0  0  0  0  0  0  0  0  0
   -3.4668   -9.6452    0.0000 C   0  0  0  0  0  0  0  0  0  0  0  0
   -3.0497  -10.3618    0.0000 C   0  0  0  0  0  0  0  0  0  0  0  0
   -2.2235  -10.3573    0.0000 C   0  0  0  0  0  0  0  0  0  0  0  0
   -3.0604   -8.9318    0.0000 C   0  0  0  0  0  0  0  0  0  0  0  0
   -2.2354   -8.9238    0.0000 C   0  0  0  0  0  0  0  0  0  0  0  0
   -1.8134   -9.6366    0.0000 C   0  0  0  0  0  0  0  0  0  0  0  0
   -1.0021   -9.4580    0.0000 N   0  0  0  0  0  0  0  0  0  0  0  0
   -0.9236   -8.6308    0.0000 C   0  0  0  0  0  0  0  0  0  0  0  0
   -1.6865   -8.2993    0.0000 N   0  0  0  0  0  0  0  0  0  0  0  0
   -0.2102   -8.2108    0.0000 C   0  0  0  0  0  0  0  0  0  0  0  0
    0.5108   -8.6178    0.0000 N   0  0  0  0  0  0  0  0  0  0  0  0
    1.2203   -8.1975    0.0000 C   0  0  0  0  0  0  0  0  0  0  0  0
    1.2127   -7.3706    0.0000 O   0  0  0  0  0  0  0  0  0  0  0  0
    1.9414   -8.6045    0.0000 C   0  0  0  0  0  0  0  0  0  0  0  0
    2.6548   -8.1844    0.0000 C   0  0  0  0  0  0  0  0  0  0  0  0
    3.3676   -8.5879    0.0000 C   0  0  0  0  0  0  0  0  0  0  0  0
    4.0734   -8.1722    0.0000 C   0  0  0  0  0  0  0  0  0  0  0  0
 26 29  1  0
  6  9  1  0
  8  7  1  0
 30 31  2  0
  7  5  2  0
 31 32  1  0
 32 35  2  0
 15 18  1  0
 34 33  2  0
 33 30  1  0
 34 35  1  0
 17 16  1  0
 16 14  1  0
 11 14  1  0
  2  4  1  0
 35 36  1  0
 36 37  2  0
 37 38  1  0
 38 34  1  0
 39 40  1  0
 17 18  2  0
  8  9  2  0
 18 19  1  0
  4  5  1  0
 19 20  2  0
  9 10  1  0
 39 44  1  0
 40 41  1  0
 41 42  1  0
 42 43  1  0
 43 44  1  0
 30 39  1  0
 20 21  1  0
 42 45  1  0
  5  6  1  0
 21 22  2  0
 46 47  2  0
 22 17  1  0
 47 48  1  0
 48 51  2  0
 23 24  1  0
 50 49  2  0
 49 46  1  0
 37 46  1  0
 50 51  1  0
 10 11  2  0
  1  3  2  0
 11 12  1  0
  1  2  1  0
 12 13  2  0
 51 52  1  0
 52 53  2  0
 53 54  1  0
 54 50  1  0
 13  8  1  0
 53 55  1  0
 23 28  1  0
 55 56  1  0
 24 25  1  0
 56 57  1  0
 25 26  1  0
 57 58  2  0
 26 27  1  0
 57 59  1  0
 27 28  1  0
 59 60  1  0
 21 23  1  0
 60 61  1  0
 14 15  2  0
 61 62  1  0
 62  1  1  0
M  END
> <chembl_id>
CHEMBL1822707

> <chembl_pref_name>
None

$$$$
CHEMBL1364584
     RDKit          2D

 23 25  0  0  0  0  0  0  0  0999 V2000
   -3.4034    0.0694    0.0000 S   0  0  0  0  0  0  0  0  0  0  0  0
   -2.5644   -1.8936    0.0000 O   0  0  0  0  0  0  0  0  0  0  0  0
   -5.5860   -3.7110    0.0000 O   0  0  0  0  0  0  0  0  0  0  0  0
    1.0211    1.3395    0.0000 O   0  0  0  0  0  0  0  0  0  0  0  0
   -2.1839   -0.4736    0.0000 N   0  0  0  0  0  0  0  0  0  0  0  0
   -2.2609    0.9946    0.0000 N   0  0  0  0  0  0  0  0  0  0  0  0
   -2.5964    0.2409    0.0000 C   0  0  0  0  0  0  0  0  0  0  0  0
   -3.4896   -0.7511    0.0000 C   0  0  0  0  0  0  0  0  0  0  0  0
   -2.7359   -1.0867    0.0000 C   0  0  0  0  0  0  0  0  0  0  0  0
   -1.4404    1.0808    0.0000 C   0  0  0  0  0  0  0  0  0  0  0  0
   -4.2041   -1.1636    0.0000 C   0  0  0  0  0  0  0  0  0  0  0  0
   -1.1048    1.8345    0.0000 C   0  0  0  0  0  0  0  0  0  0  0  0
   -0.9555    0.4134    0.0000 C   0  0  0  0  0  0  0  0  0  0  0  0
    0.2006    1.2533    0.0000 C   0  0  0  0  0  0  0  0  0  0  0  0
   -4.2041   -1.9886    0.0000 C   0  0  0  0  0  0  0  0  0  0  0  0
   -0.2843    1.9207    0.0000 C   0  0  0  0  0  0  0  0  0  0  0  0
   -0.1350    0.4996    0.0000 C   0  0  0  0  0  0  0  0  0  0  0  0
   -4.9186   -3.2261    0.0000 C   0  0  0  0  0  0  0  0  0  0  0  0
   -4.9186   -2.4011    0.0000 C   0  0  0  0  0  0  0  0  0  0  0  0
   -4.2511   -3.7110    0.0000 C   0  0  0  0  0  0  0  0  0  0  0  0
   -5.3311   -4.4956    0.0000 C   0  0  0  0  0  0  0  0  0  0  0  0
   -4.5061   -4.4956    0.0000 C   0  0  0  0  0  0  0  0  0  0  0  0
    1.3566    2.0932    0.0000 C   0  0  0  0  0  0  0  0  0  0  0  0
  1  7  1  0
  1  8  1  0
  2  9  2  0
  3 18  1  0
  3 21  1  0
  4 14  1  0
  4 23  1  0
  5  7  2  0
  5  9  1  0
  6  7  1  0
  6 10  1  0
  8  9  1  0
  8 11  2  0
 10 12  2  0
 10 13  1  0
 11 15  1  0
 12 16  1  0
 13 17  2  0
 14 16  2  0
 14 17  1  0
 15 19  2  0
 18 19  1  0
 18 20  2  0
 20 22  1  0
 21 22  2  0
M  END
> <chembl_id>
CHEMBL1364584

> <chembl_pref_name>
None

$$$$
CHEMBL1459786
     RDKit          2D

 23 25  0  0  0  0  0  0  0  0999 V2000
   -1.1266    0.8710    0.0000 S   0  0  0  0  0  0  0  0  0  0  0  0
    0.1540    2.5791    0.0000 O   0  0  0  0  0  0  0  0  0  0  0  0
   -1.0403   -1.7534    0.0000 O   0  0  0  0  0  0  0  0  0  0  0  0
   -1.2661    2.1986    0.0000 N   0  0  0  0  0  0  0  0  0  0  0  0
   -2.4991    1.3979    0.0000 N   0  0  0  0  0  0  0  0  0  0  0  0
   -1.6786    1.4841    0.0000 C   0  0  0  0  0  0  0  0  0  0  0  0
   -0.3729    1.2066    0.0000 C   0  0  0  0  0  0  0  0  0  0  0  0
   -0.4591    2.0270    0.0000 C   0  0  0  0  0  0  0  0  0  0  0  0
   -2.9840    2.0653    0.0000 C   0  0  0  0  0  0  0  0  0  0  0  0
   -3.8045    1.9791    0.0000 C   0  0  0  0  0  0  0  0  0  0  0  0
    0.3416    0.7941    0.0000 C   0  0  0  0  0  0  0  0  0  0  0  0
   -4.2894    2.6465    0.0000 C   0  0  0  0  0  0  0  0  0  0  0  0
   -2.6485    2.8190    0.0000 C   0  0  0  0  0  0  0  0  0  0  0  0
   -3.9539    3.4002    0.0000 C   0  0  0  0  0  0  0  0  0  0  0  0
   -3.1334    3.4864    0.0000 C   0  0  0  0  0  0  0  0  0  0  0  0
    0.3416   -0.0309    0.0000 C   0  0  0  0  0  0  0  0  0  0  0  0
   -0.3729   -1.2684    0.0000 C   0  0  0  0  0  0  0  0  0  0  0  0
   -0.3729   -0.4434    0.0000 C   0  0  0  0  0  0  0  0  0  0  0  0
   -4.1401    1.2254    0.0000 C   0  0  0  0  0  0  0  0  0  0  0  0
   -5.1099    2.5603    0.0000 C   0  0  0  0  0  0  0  0  0  0  0  0
    0.2945   -1.7534    0.0000 C   0  0  0  0  0  0  0  0  0  0  0  0
   -0.7854   -2.5380    0.0000 C   0  0  0  0  0  0  0  0  0  0  0  0
    0.0396   -2.5380    0.0000 C   0  0  0  0  0  0  0  0  0  0  0  0
  1  6  1  0
  1  7  1  0
  2  8  2  0
  3 17  1  0
  3 22  1  0
  4  6  2  0
  4  8  1  0
  5  6  1  0
  5  9  1  0
  7  8  1  0
  7 11  2  0
  9 10  2  0
  9 13  1  0
 10 12  1  0
 10 19  1  0
 11 16  1  0
 12 14  2  0
 12 20  1  0
 13 15  2  0
 14 15  1  0
 16 18  2  0
 17 18  1  0
 17 21  2  0
 21 23  1  0
 22 23  2  0
M  END
> <chembl_id>
CHEMBL1459786

> <chembl_pref_name>
None

$$$$
CHEMBL1587715
     RDKit          2D

 23 24  0  0  0  0  0  0  0  0999 V2000
    0.4328   -1.2510    0.0000 Br  0  0  0  0  0  0  0  0  0  0  0  0
   -0.1694   -2.8997    0.0000 Cl  0  0  0  0  0  0  0  0  0  0  0  0
   -0.1694   -4.5497    0.0000 Cl  0  0  0  0  0  0  0  0  0  0  0  0
   -2.4280    0.6994    0.0000 O   0  0  0  0  0  0  0  0  0  0  0  0
   -3.0273   -0.4247    0.0000 O   0  0  0  0  0  0  0  0  0  0  0  0
   -1.2984    1.7475    0.0000 N   0  0  0  0  0  0  0  0  0  0  0  0
   -1.5984   -0.4247    0.0000 C   0  0  0  0  0  0  0  0  0  0  0  0
   -1.6600    0.3980    0.0000 C   0  0  0  0  0  0  0  0  0  0  0  0
   -2.3128   -0.8372    0.0000 C   0  0  0  0  0  0  0  0  0  0  0  0
   -1.0553    0.9592    0.0000 C   0  0  0  0  0  0  0  0  0  0  0  0
   -1.5984   -2.8997    0.0000 C   0  0  0  0  0  0  0  0  0  0  0  0
   -0.9167   -0.8894    0.0000 C   0  0  0  0  0  0  0  0  0  0  0  0
   -0.8839   -3.3122    0.0000 C   0  0  0  0  0  0  0  0  0  0  0  0
   -0.1284   -0.6462    0.0000 C   0  0  0  0  0  0  0  0  0  0  0  0
   -2.3128   -1.6622    0.0000 C   0  0  0  0  0  0  0  0  0  0  0  0
   -0.2395    0.8362    0.0000 C   0  0  0  0  0  0  0  0  0  0  0  0
   -1.5984   -2.0747    0.0000 C   0  0  0  0  0  0  0  0  0  0  0  0
   -0.8839   -4.1372    0.0000 C   0  0  0  0  0  0  0  0  0  0  0  0
    0.1730    0.1217    0.0000 C   0  0  0  0  0  0  0  0  0  0  0  0
   -2.3128   -3.3122    0.0000 C   0  0  0  0  0  0  0  0  0  0  0  0
   -1.5984   -4.5497    0.0000 C   0  0  0  0  0  0  0  0  0  0  0  0
   -2.3128   -4.1372    0.0000 C   0  0  0  0  0  0  0  0  0  0  0  0
   -2.1027    1.9311    0.0000 C   0  0  0  0  0  0  0  0  0  0  0  0
  1 14  1  0
  2 13  1  0
  3 18  1  0
  4  8  1  0
  5  9  2  0
  6 10  2  3
  6 23  1  0
  7  8  2  0
  7  9  1  0
  7 12  1  0
  8 10  1  0
  9 15  1  0
 10 16  1  0
 11 13  1  0
 11 17  1  0
 11 20  2  0
 12 14  2  0
 13 18  2  0
 14 19  1  0
 15 17  2  0
 16 19  2  0
 18 21  1  0
 20 22  1  0
 21 22  2  0
M  END
> <chembl_id>
CHEMBL1587715

> <chembl_pref_name>
None

$$$$
CHEMBL3195976
     RDKit          2D

 30 33  0  0  1  0  0  0  0  0999 V2000
    4.7737    1.4291    0.0000 S   0  0  0  0  0  0  0  0  0  0  0  0
    2.4694   -2.5190    0.0000 O   0  0  0  0  0  0  0  0  0  0  0  0
   -4.9998    1.5775    0.0000 O   0  0  0  0  0  0  0  0  0  0  0  0
    8.9357    0.6031    0.0000 O   0  0  0  0  0  0  0  0  0  0  0  0
    0.0000   -1.3190    0.0000 N   0  0  0  0  0  0  0  0  0  0  0  0
    3.7372   -0.6045    0.0000 N   0  0  0  0  0  0  0  0  0  0  0  0
    2.4732    1.5389    0.0000 N   0  0  0  0  0  0  0  0  0  0  0  0
   10.2387   -1.3449    0.0000 N   0  0  0  0  0  0  0  0  0  0  0  0
    1.2274    0.8244    0.0000 C   0  0  0  0  0  0  0  0  0  0  0  0
    1.2274   -0.6045    0.0000 C   0  0  0  0  0  0  0  0  0  0  0  0
   -1.2274    0.8244    0.0000 C   0  0  0  0  0  0  0  0  0  0  0  0
   -1.2274   -0.6045    0.0000 C   0  0  0  0  0  0  0  0  0  0  0  0
    2.4732   -1.3190    0.0000 C   0  0  0  0  0  0  0  0  0  0  0  0
    3.7372    0.8244    0.0000 C   0  0  0  0  0  0  0  0  0  0  0  0
   -2.4915    1.5389    0.0000 C   0  0  0  0  0  0  0  0  0  0  0  0
   -2.4915   -1.3190    0.0000 C   0  0  0  0  0  0  0  0  0  0  0  0
   -3.7006    0.8244    0.0000 C   0  0  0  0  0  0  0  0  0  0  0  0
   -3.7006   -0.6045    0.0000 C   0  0  0  0  0  0  0  0  0  0  0  0
    5.0387   -1.3529    0.0000 C   0  0  0  0  0  0  0  0  0  0  0  0
    6.3375   -0.6009    0.0000 C   0  0  0  0  0  0  0  0  0  0  0  0
    7.6387   -1.3489    0.0000 C   0  0  0  0  0  0  0  0  0  0  0  0
    8.9375   -0.5969    0.0000 C   0  0  0  0  0  0  0  0  0  0  0  0
   11.5375   -0.5929    0.0000 C   0  0  0  0  0  0  0  0  0  0  0  0
   -4.9984    2.7775    0.0000 C   0  0  0  0  0  0  0  0  0  0  0  0
   12.8390   -1.3386    0.0000 C   0  0  0  0  0  0  0  0  0  0  0  0
   11.5327    0.9072    0.0000 C   0  0  0  0  0  0  0  0  0  0  0  0
   14.1356   -0.5843    0.0000 C   0  0  0  0  0  0  0  0  0  0  0  0
   12.8293    1.6614    0.0000 C   0  0  0  0  0  0  0  0  0  0  0  0
   14.1307    0.9156    0.0000 C   0  0  0  0  0  0  0  0  0  0  0  0
   12.8430   -2.5386    0.0000 C   0  0  0  0  0  0  0  0  0  0  0  0
  1 14  2  0
  2 13  2  0
  3 17  1  0
  3 24  1  0
  4 22  2  0
  5 10  1  0
  5 12  1  0
  6 13  1  0
  6 14  1  0
  6 19  1  0
  7  9  1  0
  7 14  1  0
  8 22  1  0
  8 23  1  0
  9 10  2  0
  9 11  1  0
 10 13  1  0
 11 12  1  0
 11 15  2  0
 12 16  2  0
 15 17  1  0
 16 18  1  0
 17 18  2  0
 19 20  1  0
 20 21  1  0
 21 22  1  0
 23 25  1  0
 23 26  1  0
 25 27  1  0
 25 30  1  0
 26 28  1  0
 27 29  1  0
 28 29  1  0
M  END
> <chembl_id>
CHEMBL3195976

> <chembl_pref_name>
None

$$$$
CHEMBL4538961
     RDKit          2D

 15 17  0  0  0  0  0  0  0  0999 V2000
    9.7016   -1.4108    0.0000 N   0  0  0  0  0  0  0  0  0  0  0  0
    9.0386   -0.9286    0.0000 N   0  0  0  0  0  0  0  0  0  0  0  0
    8.3799   -1.4108    0.0000 C   0  0  0  0  0  0  0  0  0  0  0  0
    9.4472   -2.1875    0.0000 C   0  0  0  0  0  0  0  0  0  0  0  0
    8.6300   -2.1875    0.0000 N   0  0  0  0  0  0  0  0  0  0  0  0
    8.3774   -2.9647    0.0000 N   0  0  0  0  0  0  0  0  0  0  0  0
    9.0386   -3.4451    0.0000 C   0  0  0  0  0  0  0  0  0  0  0  0
    9.6997   -2.9647    0.0000 S   0  0  0  0  0  0  0  0  0  0  0  0
    9.0386   -4.2623    0.0000 C   0  0  0  0  0  0  0  0  0  0  0  0
    8.3312   -4.6676    0.0000 C   0  0  0  0  0  0  0  0  0  0  0  0
    8.3309   -5.4840    0.0000 C   0  0  0  0  0  0  0  0  0  0  0  0
    9.0391   -5.8934    0.0000 C   0  0  0  0  0  0  0  0  0  0  0  0
    9.7492   -5.4804    0.0000 C   0  0  0  0  0  0  0  0  0  0  0  0
    9.7460   -4.6653    0.0000 C   0  0  0  0  0  0  0  0  0  0  0  0
   10.4517   -4.2533    0.0000 C   0  0  0  0  0  0  0  0  0  0  0  0
  4  1  2  0
  1  2  1  0
  2  3  2  0
  3  5  1  0
  4  5  1  0
  5  6  1  0
  6  7  2  0
  7  8  1  0
  8  4  1  0
  7  9  1  0
  9 10  2  0
 10 11  1  0
 11 12  2  0
 12 13  1  0
 13 14  2  0
 14  9  1  0
 14 15  1  0
M  END
> <chembl_id>
CHEMBL4538961

> <chembl_pref_name>
None

$$$$
CHEMBL1594488
     RDKit          2D

 25 28  0  0  0  0  0  0  0  0999 V2000
    1.0650    0.2221    0.0000 S   0  0  0  0  0  0  0  0  0  0  0  0
   -1.4824   -1.2539    0.0000 F   0  0  0  0  0  0  0  0  0  0  0  0
    4.0793   -0.7559    0.0000 O   0  0  0  0  0  0  0  0  0  0  0  0
   -0.6574    1.6040    0.0000 O   0  0  0  0  0  0  0  0  0  0  0  0
    2.5641    0.0646    0.0000 N   0  0  0  0  0  0  0  0  0  0  0  0
   -0.6574    0.1751    0.0000 N   0  0  0  0  0  0  0  0  0  0  0  0
    0.8101    2.3416    0.0000 N   0  0  0  0  0  0  0  0  0  0  0  0
    1.8496    1.3021    0.0000 C   0  0  0  0  0  0  0  0  0  0  0  0
    1.8496    0.4771    0.0000 C   0  0  0  0  0  0  0  0  0  0  0  0
    0.5801    0.8896    0.0000 C   0  0  0  0  0  0  0  0  0  0  0  0
    1.0650    1.5570    0.0000 C   0  0  0  0  0  0  0  0  0  0  0  0
    3.2786    0.4771    0.0000 C   0  0  0  0  0  0  0  0  0  0  0  0
   -0.2449    0.8896    0.0000 C   0  0  0  0  0  0  0  0  0  0  0  0
    2.5641    1.7146    0.0000 C   0  0  0  0  0  0  0  0  0  0  0  0
    3.2786    1.3021    0.0000 C   0  0  0  0  0  0  0  0  0  0  0  0
    3.9930    0.0646    0.0000 C   0  0  0  0  0  0  0  0  0  0  0  0
   -1.4824    0.1751    0.0000 C   0  0  0  0  0  0  0  0  0  0  0  0
    4.7467    0.4001    0.0000 C   0  0  0  0  0  0  0  0  0  0  0  0
   -1.8949   -0.5394    0.0000 C   0  0  0  0  0  0  0  0  0  0  0  0
   -1.8949    0.8896    0.0000 C   0  0  0  0  0  0  0  0  0  0  0  0
    4.8862   -0.9275    0.0000 C   0  0  0  0  0  0  0  0  0  0  0  0
    5.2987   -0.2130    0.0000 C   0  0  0  0  0  0  0  0  0  0  0  0
   -2.7199   -0.5394    0.0000 C   0  0  0  0  0  0  0  0  0  0  0  0
   -2.7199    0.8896    0.0000 C   0  0  0  0  0  0  0  0  0  0  0  0
   -3.1324    0.1751    0.0000 C   0  0  0  0  0  0  0  0  0  0  0  0
  1  9  1  0
  1 10  1  0
  2 19  1  0
  3 16  1  0
  3 21  1  0
  4 13  2  0
  5  9  2  0
  5 12  1  0
  6 13  1  0
  6 17  1  0
  7 11  1  0
  8  9  1  0
  8 11  1  0
  8 14  2  0
 10 11  2  0
 10 13  1  0
 12 15  2  0
 12 16  1  0
 14 15  1  0
 16 18  2  0
 17 19  1  0
 17 20  2  0
 18 22  1  0
 19 23  2  0
 20 24  1  0
 21 22  2  0
 23 25  1  0
 24 25  2  0
M  END
> <chembl_id>
CHEMBL1594488

> <chembl_pref_name>
None

$$$$
CHEMBL323197
     RDKit          2D

 30 32  0  0  0  0  0  0  0  0999 V2000
    9.4792   -6.4458    0.0000 C   0  0  0  0  0  0  0  0  0  0  0  0
    8.7667   -6.0333    0.0000 C   0  0  0  0  0  0  0  0  0  0  0  0
    8.0500   -6.4458    0.0000 C   0  0  0  0  0  0  0  0  0  0  0  0
   10.1917   -6.0333    0.0000 C   0  0  0  0  0  0  0  0  0  0  0  0
    7.3375   -6.0333    0.0000 C   0  0  0  0  0  0  0  0  0  0  0  0
    9.4792   -7.2708    0.0000 C   0  0  0  0  0  0  0  0  0  0  0  0
    8.0500   -7.2708    0.0000 C   0  0  0  0  0  0  0  0  0  0  0  0
    8.7667   -7.6833    0.0000 O   0  0  0  0  0  0  0  0  0  0  0  0
    6.6208   -6.4458    0.0000 C   0  0  0  0  0  0  0  0  0  0  0  0
   10.1917   -7.6833    0.0000 C   0  0  0  0  0  0  0  0  0  0  0  0
    7.3375   -7.6833    0.0000 C   0  0  0  0  0  0  0  0  0  0  0  0
    6.6208   -7.2708    0.0000 C   0  0  0  0  0  0  0  0  0  0  0  0
    7.3375   -5.2083    0.0000 C   0  0  0  0  0  0  0  0  0  0  0  0
    8.0500   -4.7958    0.0000 C   0  0  0  0  0  0  0  0  0  0  0  0
    8.7667   -5.2083    0.0000 O   0  0  0  0  0  0  0  0  0  0  0  0
    8.0500   -3.9667    0.0000 C   0  0  0  0  0  0  0  0  0  0  0  0
   10.1917   -5.2083    0.0000 O   0  0  0  0  0  0  0  0  0  0  0  0
    5.9000   -6.0333    0.0000 O   0  0  0  0  0  0  0  0  0  0  0  0
    5.9000   -7.6917    0.0000 O   0  0  0  0  0  0  0  0  0  0  0  0
    7.3333   -3.5542    0.0000 C   0  0  0  0  0  0  0  0  0  0  0  0
    8.7625   -3.5542    0.0000 C   0  0  0  0  0  0  0  0  0  0  0  0
    5.1875   -6.4500    0.0000 C   0  0  0  0  0  0  0  0  0  0  0  0
   10.9125   -6.4496    0.0000 C   0  0  0  0  0  0  0  0  0  0  0  0
   10.9083   -7.2708    0.0000 C   0  0  0  0  0  0  0  0  0  0  0  0
   11.6312   -7.6958    0.0000 O   0  0  0  0  0  0  0  0  0  0  0  0
   12.3460   -4.7999    0.0000 C   0  0  0  0  0  0  0  0  0  0  0  0
   11.6335   -5.2120    0.0000 C   0  0  0  0  0  0  0  0  0  0  0  0
   11.6311   -6.0366    0.0000 C   0  0  0  0  0  0  0  0  0  0  0  0
   12.3458   -3.9667    0.0000 C   0  0  0  0  0  0  0  0  0  0  0  0
   13.0625   -5.2083    0.0000 C   0  0  0  0  0  0  0  0  0  0  0  0
  8  6  1  0
  9  5  1  0
 24 10  2  0
 10  6  1  0
 11  7  2  0
 12 11  1  0
 13  5  1  0
 14 13  1  0
 15  2  2  0
 16 14  2  0
 17  4  1  0
 18  9  1  0
 19 12  1  0
 20 16  1  0
 21 16  1  0
 22 18  1  0
  3  7  1  0
  9 12  2  0
 23 24  1  0
  2  1  1  0
  3  2  1  0
  4  1  1  0
  5  3  2  0
  6  1  2  0
 23 28  1  0
 24 25  1  0
 26 27  2  0
 27 28  1  0
  7  8  1  0
 26 29  1  0
 23  4  2  0
 26 30  1  0
M  END
> <chembl_id>
CHEMBL323197

> <chembl_pref_name>
MANGOSTIN

$$$$
CHEMBL1442398
     RDKit          2D

 25 26  0  0  0  0  0  0  0  0999 V2000
    1.3766   -1.8540    0.0000 Cl  0  0  0  0  0  0  0  0  0  0  0  0
   -1.4813   -1.8540    0.0000 Cl  0  0  0  0  0  0  0  0  0  0  0  0
    4.2345    0.6210    0.0000 S   0  0  0  0  0  0  0  0  0  0  0  0
    8.3981    0.0735    0.0000 O   0  0  0  0  0  0  0  0  0  0  0  0
    1.3766   -0.2040    0.0000 O   0  0  0  0  0  0  0  0  0  0  0  0
    6.3779   -1.4415    0.0000 O   0  0  0  0  0  0  0  0  0  0  0  0
    2.8055    0.6210    0.0000 O   0  0  0  0  0  0  0  0  0  0  0  0
    5.6634   -0.2040    0.0000 N   0  0  0  0  0  0  0  0  0  0  0  0
    4.9489   -0.6165    0.0000 N   0  0  0  0  0  0  0  0  0  0  0  0
    3.5200   -0.6165    0.0000 N   0  0  0  0  0  0  0  0  0  0  0  0
    7.0923   -0.2040    0.0000 C   0  0  0  0  0  0  0  0  0  0  0  0
    0.6621   -0.6165    0.0000 C   0  0  0  0  0  0  0  0  0  0  0  0
    7.8460   -0.5396    0.0000 C   0  0  0  0  0  0  0  0  0  0  0  0
    6.3779   -0.6165    0.0000 C   0  0  0  0  0  0  0  0  0  0  0  0
    0.6621   -1.4415    0.0000 C   0  0  0  0  0  0  0  0  0  0  0  0
    7.1786    0.6165    0.0000 C   0  0  0  0  0  0  0  0  0  0  0  0
   -0.7668   -1.4415    0.0000 C   0  0  0  0  0  0  0  0  0  0  0  0
   -0.0524   -1.8540    0.0000 C   0  0  0  0  0  0  0  0  0  0  0  0
   -0.0524   -0.2040    0.0000 C   0  0  0  0  0  0  0  0  0  0  0  0
    7.9856    0.7880    0.0000 C   0  0  0  0  0  0  0  0  0  0  0  0
   -0.7668   -0.6165    0.0000 C   0  0  0  0  0  0  0  0  0  0  0  0
    2.8055   -0.2040    0.0000 C   0  0  0  0  0  0  0  0  0  0  0  0
    4.2345   -0.2040    0.0000 C   0  0  0  0  0  0  0  0  0  0  0  0
    2.0910   -0.6165    0.0000 C   0  0  0  0  0  0  0  0  0  0  0  0
    8.0175   -1.3465    0.0000 C   0  0  0  0  0  0  0  0  0  0  0  0
  1 15  1  0
  2 17  1  0
  3 23  2  0
  4 13  1  0
  4 20  1  0
  5 12  1  0
  5 24  1  0
  6 14  2  0
  7 22  2  0
  8  9  1  0
  8 14  1  0
  9 23  1  0
 10 22  1  0
 10 23  1  0
 11 13  2  0
 11 14  1  0
 11 16  1  0
 12 15  1  0
 12 19  2  0
 13 25  1  0
 15 18  2  0
 16 20  2  0
 17 18  1  0
 17 21  2  0
 19 21  1  0
 22 24  1  0
M  END
> <chembl_id>
CHEMBL1442398

> <chembl_pref_name>
None

$$$$
CHEMBL1468444
     RDKit          2D

 29 32  0  0  0  0  0  0  0  0999 V2000
    2.8660   -0.4112    0.0000 S   0  0  0  0  0  0  0  0  0  0  0  0
    4.2861   -0.7917    0.0000 S   0  0  0  0  0  0  0  0  0  0  0  0
    1.7671   -3.4515    0.0000 S   0  0  0  0  0  0  0  0  0  0  0  0
    1.5561    1.8576    0.0000 O   0  0  0  0  0  0  0  0  0  0  0  0
   -0.1995    1.4845    0.0000 O   0  0  0  0  0  0  0  0  0  0  0  0
   -1.1016    0.1119    0.0000 O   0  0  0  0  0  0  0  0  0  0  0  0
   -1.0546   -1.6105    0.0000 O   0  0  0  0  0  0  0  0  0  0  0  0
    1.6330    0.3895    0.0000 N   0  0  0  0  0  0  0  0  0  0  0  0
    3.0056    0.9163    0.0000 N   0  0  0  0  0  0  0  0  0  0  0  0
    3.7592    0.5808    0.0000 N   0  0  0  0  0  0  0  0  0  0  0  0
    1.0810   -0.2236    0.0000 C   0  0  0  0  0  0  0  0  0  0  0  0
    0.3273    0.1119    0.0000 C   0  0  0  0  0  0  0  0  0  0  0  0
    1.2205    1.1040    0.0000 C   0  0  0  0  0  0  0  0  0  0  0  0
    0.4136    0.9324    0.0000 C   0  0  0  0  0  0  0  0  0  0  0  0
    2.4535    0.3032    0.0000 C   0  0  0  0  0  0  0  0  0  0  0  0
    1.2525   -1.0306    0.0000 C   0  0  0  0  0  0  0  0  0  0  0  0
   -0.3871   -0.3006    0.0000 C   0  0  0  0  0  0  0  0  0  0  0  0
   -0.3871   -1.1256    0.0000 C   0  0  0  0  0  0  0  0  0  0  0  0
    2.0372   -1.2855    0.0000 C   0  0  0  0  0  0  0  0  0  0  0  0
    0.6394   -1.5826    0.0000 C   0  0  0  0  0  0  0  0  0  0  0  0
    3.6730   -0.2397    0.0000 C   0  0  0  0  0  0  0  0  0  0  0  0
    0.2803   -1.6105    0.0000 C   0  0  0  0  0  0  0  0  0  0  0  0
    2.2087   -2.0925    0.0000 C   0  0  0  0  0  0  0  0  0  0  0  0
    0.8110   -2.3896    0.0000 C   0  0  0  0  0  0  0  0  0  0  0  0
    1.5956   -2.6445    0.0000 C   0  0  0  0  0  0  0  0  0  0  0  0
   -0.7996   -2.3951    0.0000 C   0  0  0  0  0  0  0  0  0  0  0  0
    0.0254   -2.3951    0.0000 C   0  0  0  0  0  0  0  0  0  0  0  0
    5.0707   -0.5368    0.0000 C   0  0  0  0  0  0  0  0  0  0  0  0
    2.5517   -3.7064    0.0000 C   0  0  0  0  0  0  0  0  0  0  0  0
  1 15  1  0
  1 21  1  0
  2 21  1  0
  2 28  1  0
  3 25  1  0
  3 29  1  0
  4 13  2  0
  5 14  1  0
  6 17  2  0
  7 18  1  0
  7 26  1  0
  8 11  1  0
  8 13  1  0
  8 15  1  0
  9 10  1  0
  9 15  2  0
 10 21  2  0
 11 12  1  0
 11 16  1  0
 12 14  2  0
 12 17  1  0
 13 14  1  0
 16 19  2  0
 16 20  1  0
 17 18  1  0
 18 22  2  0
 19 23  1  0
 20 24  2  0
 22 27  1  0
 23 25  2  0
 24 25  1  0
 26 27  2  0
M  END
> <chembl_id>
CHEMBL1468444

> <chembl_pref_name>
None

$$$$
CHEMBL52562
     RDKit          2D

 18 20  0  0  0  0  0  0  0  0999 V2000
    6.6917   -7.0125    0.0000 N   0  0  0  0  0  0  0  0  0  0  0  0
    7.2167   -6.7125    0.0000 C   0  0  0  0  0  0  0  0  0  0  0  0
    7.2167   -6.1125    0.0000 C   0  0  0  0  0  0  0  0  0  0  0  0
    6.1792   -6.7125    0.0000 C   0  0  0  0  0  0  0  0  0  0  0  0
    6.1792   -6.1125    0.0000 N   0  0  0  0  0  0  0  0  0  0  0  0
    6.6917   -5.8125    0.0000 C   0  0  0  0  0  0  0  0  0  0  0  0
    7.7792   -5.9250    0.0000 N   0  0  0  0  0  0  0  0  0  0  0  0
    7.7917   -6.8917    0.0000 N   0  0  0  0  0  0  0  0  0  0  0  0
    8.1375   -6.4042    0.0000 C   0  0  0  0  0  0  0  0  0  0  0  0
    5.6625   -7.0125    0.0000 N   0  0  0  0  0  0  0  0  0  0  0  0
    6.6917   -5.2125    0.0000 O   0  0  0  0  0  0  0  0  0  0  0  0
    5.1417   -6.7125    0.0000 C   0  0  0  0  0  0  0  0  0  0  0  0
    5.1417   -6.1125    0.0000 C   0  0  0  0  0  0  0  0  0  0  0  0
    4.6292   -5.8125    0.0000 C   0  0  0  0  0  0  0  0  0  0  0  0
    4.6292   -5.2125    0.0000 Cl  0  0  0  0  0  0  0  0  0  0  0  0
    4.1042   -6.7167    0.0000 C   0  0  0  0  0  0  0  0  0  0  0  0
    4.6292   -7.0125    0.0000 C   0  0  0  0  0  0  0  0  0  0  0  0
    4.1042   -6.1125    0.0000 C   0  0  0  0  0  0  0  0  0  0  0  0
  2  1  1  0
  3  2  1  0
  4  1  2  0
  5  4  1  0
  6  5  1  0
  7  3  1  0
  8  2  2  0
  9  8  1  0
 10  4  1  0
 11  6  1  0
 12 10  1  0
 13 12  2  0
 14 13  1  0
 15 14  1  0
 16 17  2  0
 17 12  1  0
 18 16  1  0
  3  6  2  0
  9  7  2  0
 14 18  2  0
M  END
> <chembl_id>
CHEMBL52562

> <chembl_pref_name>
None

$$$$
CHEMBL522710
     RDKit          2D

 23 24  0  0  0  0  0  0  0  0999 V2000
    6.1934  -11.0393    0.0000 C   0  0  0  0  0  0  0  0  0  0  0  0
    6.1934  -10.2143    0.0000 C   0  0  0  0  0  0  0  0  0  0  0  0
    5.4789   -9.8018    0.0000 C   0  0  0  0  0  0  0  0  0  0  0  0
    4.7644  -10.2143    0.0000 C   0  0  0  0  0  0  0  0  0  0  0  0
    4.7644  -11.0393    0.0000 C   0  0  0  0  0  0  0  0  0  0  0  0
    5.4789  -11.4518    0.0000 C   0  0  0  0  0  0  0  0  0  0  0  0
    4.0500  -11.4518    0.0000 C   0  0  0  0  0  0  0  0  0  0  0  0
    4.0500  -12.2768    0.0000 C   0  0  0  0  0  0  0  0  0  0  0  0
    3.3355  -11.0393    0.0000 O   0  0  0  0  0  0  0  0  0  0  0  0
    3.3355  -12.6893    0.0000 C   0  0  0  0  0  0  0  0  0  0  0  0
    3.3355  -13.5143    0.0000 C   0  0  0  0  0  0  0  0  0  0  0  0
    2.6210  -12.2768    0.0000 O   0  0  0  0  0  0  0  0  0  0  0  0
    2.6210  -13.9268    0.0000 O   0  0  0  0  0  0  0  0  0  0  0  0
    4.0500  -13.9268    0.0000 O   0  0  0  0  0  0  0  0  0  0  0  0
    5.4789   -8.9768    0.0000 N   0  0  0  0  0  0  0  0  0  0  0  0
    4.7644   -8.5643    0.0000 C   0  0  0  0  0  0  0  0  0  0  0  0
    4.7644   -7.7393    0.0000 C   0  0  0  0  0  0  0  0  0  0  0  0
    4.0500   -7.3268    0.0000 C   0  0  0  0  0  0  0  0  0  0  0  0
    4.0500   -6.5018    0.0000 C   0  0  0  0  0  0  0  0  0  0  0  0
    4.7644   -6.0893    0.0000 C   0  0  0  0  0  0  0  0  0  0  0  0
    5.4789   -6.5018    0.0000 C   0  0  0  0  0  0  0  0  0  0  0  0
    5.4789   -7.3268    0.0000 C   0  0  0  0  0  0  0  0  0  0  0  0
    4.7644   -5.2643    0.0000 Cl  0  0  0  0  0  0  0  0  0  0  0  0
  5  6  2  0
 10 12  1  0
  6  1  1  0
 11 13  2  0
  1  2  2  0
 11 14  1  0
  5  7  1  0
  3 15  1  0
  3  4  2  0
 15 16  1  0
  7  8  1  0
 16 17  1  0
 17 18  2  0
  7  9  2  0
 18 19  1  0
  4  5  1  0
 19 20  2  0
  8 10  2  0
 20 21  1  0
  2  3  1  0
 21 22  2  0
 22 17  1  0
 10 11  1  0
 20 23  1  0
M  END
> <chembl_id>
CHEMBL522710

> <chembl_pref_name>
None

$$$$
CHEMBL3974381
     RDKit          2D

 31 34  0  0  0  0  0  0  0  0999 V2000
   10.1695   -8.8488    0.0000 O   0  0  0  0  0  0  0  0  0  0  0  0
   10.9867   -8.8488    0.0000 S   0  0  0  0  0  0  0  0  0  0  0  0
   10.5781   -8.1411    0.0000 O   0  0  0  0  0  0  0  0  0  0  0  0
   10.9885   -9.6694    0.0000 C   0  0  0  0  0  0  0  0  0  0  0  0
   11.6986  -10.0821    0.0000 C   0  0  0  0  0  0  0  0  0  0  0  0
   11.6986  -10.9053    0.0000 C   0  0  0  0  0  0  0  0  0  0  0  0
   10.9885  -11.3088    0.0000 C   0  0  0  0  0  0  0  0  0  0  0  0
   10.2826  -10.9039    0.0000 C   0  0  0  0  0  0  0  0  0  0  0  0
   10.2826  -10.0821    0.0000 C   0  0  0  0  0  0  0  0  0  0  0  0
    9.5731   -9.6777    0.0000 C   0  0  0  0  0  0  0  0  0  0  0  0
   12.4766  -11.1581    0.0000 N   0  0  0  0  0  0  0  0  0  0  0  0
   12.9629  -10.4937    0.0000 C   0  0  0  0  0  0  0  0  0  0  0  0
   12.4766   -9.8296    0.0000 S   0  0  0  0  0  0  0  0  0  0  0  0
   13.7778  -10.4937    0.0000 C   0  0  0  0  0  0  0  0  0  0  0  0
   14.1857   -9.7887    0.0000 C   0  0  0  0  0  0  0  0  0  0  0  0
   15.0072   -9.7887    0.0000 C   0  0  0  0  0  0  0  0  0  0  0  0
   15.4159  -10.5012    0.0000 C   0  0  0  0  0  0  0  0  0  0  0  0
   15.0015  -11.2049    0.0000 C   0  0  0  0  0  0  0  0  0  0  0  0
   14.1858  -11.2049    0.0000 C   0  0  0  0  0  0  0  0  0  0  0  0
   16.2184  -10.3339    0.0000 N   0  0  0  0  0  0  0  0  0  0  0  0
   16.3077   -9.5174    0.0000 C   0  0  0  0  0  0  0  0  0  0  0  0
   15.5588   -9.1797    0.0000 S   0  0  0  0  0  0  0  0  0  0  0  0
   17.0131   -9.1087    0.0000 C   0  0  0  0  0  0  0  0  0  0  0  0
   17.7225   -9.5251    0.0000 C   0  0  0  0  0  0  0  0  0  0  0  0
   18.4319   -9.1084    0.0000 C   0  0  0  0  0  0  0  0  0  0  0  0
   18.4319   -8.2915    0.0000 C   0  0  0  0  0  0  0  0  0  0  0  0
   17.7223   -7.8829    0.0000 C   0  0  0  0  0  0  0  0  0  0  0  0
   17.0131   -8.2876    0.0000 C   0  0  0  0  0  0  0  0  0  0  0  0
   19.1346   -7.8824    0.0000 N   0  0  0  0  0  0  0  0  0  0  0  0
   11.6963   -8.4417    0.0000 O   0  0  0  0  0  0  0  0  0  0  0  0
   13.4200   -7.5176    0.0000 Na  0  0  0  0  0 15  0  0  0  0  0  0
  2  1  2  0
  3  2  2  0
  2  4  1  0
  4  5  2  0
  6  5  1  0
  7  6  2  0
  8  7  1  0
  9  8  2  0
  4  9  1  0
  9 10  1  0
  6 11  1  0
 11 12  2  0
 12 13  1  0
 13  5  1  0
 12 14  1  0
 14 15  2  0
 16 15  1  0
 17 16  2  0
 18 17  1  0
 19 18  2  0
 14 19  1  0
 17 20  1  0
 20 21  2  0
 21 22  1  0
 22 16  1  0
 21 23  1  0
 23 24  2  0
 25 24  1  0
 26 25  2  0
 27 26  1  0
 28 27  2  0
 23 28  1  0
 26 29  1  0
  2 30  1  0
M  CHG  2  30  -1  31   1
M  END
> <chembl_id>
CHEMBL3974381

> <chembl_pref_name>
None

$$$$
CHEMBL486422
     RDKit          2D

 30 33  0  0  0  0  0  0  0  0999 V2000
   -4.9723    0.8259    0.0000 O   0  0  0  0  0  0  0  0  0  0  0  0
   -4.2578    1.2384    0.0000 C   0  0  0  0  0  0  0  0  0  0  0  0
   -3.5434    0.8259    0.0000 C   0  0  0  0  0  0  0  0  0  0  0  0
   -2.8289    1.2384    0.0000 O   0  0  0  0  0  0  0  0  0  0  0  0
   -3.5434    0.0009    0.0000 C   0  0  0  0  0  0  0  0  0  0  0  0
   -4.2578   -0.4116    0.0000 O   0  0  0  0  0  0  0  0  0  0  0  0
   -2.8289   -0.4116    0.0000 C   0  0  0  0  0  0  0  0  0  0  0  0
   -2.8289   -1.2366    0.0000 O   0  0  0  0  0  0  0  0  0  0  0  0
   -2.1144    0.0009    0.0000 C   0  0  0  0  0  0  0  0  0  0  0  0
   -1.4000   -0.4116    0.0000 O   0  0  0  0  0  0  0  0  0  0  0  0
   -2.1144    0.8259    0.0000 C   0  0  0  0  0  0  0  0  0  0  0  0
   -1.4000    1.2384    0.0000 O   0  0  0  0  0  0  0  0  0  0  0  0
   -0.6855    0.8259    0.0000 C   0  0  0  0  0  0  0  0  0  0  0  0
   -0.6855    0.0009    0.0000 C   0  0  0  0  0  0  0  0  0  0  0  0
    0.0290   -0.4116    0.0000 C   0  0  0  0  0  0  0  0  0  0  0  0
    0.7435    0.0009    0.0000 C   0  0  0  0  0  0  0  0  0  0  0  0
    0.7435    0.8259    0.0000 C   0  0  0  0  0  0  0  0  0  0  0  0
    0.0290    1.2384    0.0000 C   0  0  0  0  0  0  0  0  0  0  0  0
    1.4579    1.2384    0.0000 O   0  0  0  0  0  0  0  0  0  0  0  0
    2.1724    0.8259    0.0000 C   0  0  0  0  0  0  0  0  0  0  0  0
    2.1724    0.0009    0.0000 C   0  0  0  0  0  0  0  0  0  0  0  0
    1.4579   -0.4116    0.0000 C   0  0  0  0  0  0  0  0  0  0  0  0
    1.4579   -1.2366    0.0000 O   0  0  0  0  0  0  0  0  0  0  0  0
    2.8869   -0.4116    0.0000 C   0  0  0  0  0  0  0  0  0  0  0  0
    3.6013    0.0009    0.0000 C   0  0  0  0  0  0  0  0  0  0  0  0
    4.3158   -0.4116    0.0000 C   0  0  0  0  0  0  0  0  0  0  0  0
    4.3158   -1.2366    0.0000 C   0  0  0  0  0  0  0  0  0  0  0  0
    5.0303   -1.6491    0.0000 O   0  0  0  0  0  0  0  0  0  0  0  0
    3.6013   -1.6491    0.0000 C   0  0  0  0  0  0  0  0  0  0  0  0
    2.8869   -1.2366    0.0000 C   0  0  0  0  0  0  0  0  0  0  0  0
  2  1  1  0
  3  2  1  1
  3  4  1  0
  5  3  1  0
 11  4  1  0
  5  6  1  6
  7  5  1  0
  7  8  1  1
  9  7  1  0
  9 10  1  6
 11  9  1  0
 11 12  1  1
 13 12  1  0
 13 14  2  0
 13 18  1  0
 14 15  1  0
 15 16  2  0
 16 17  1  0
 16 22  1  0
 17 18  2  0
 17 19  1  0
 20 19  1  0
 20 21  2  0
 21 22  1  0
 21 24  1  0
 22 23  2  0
 24 25  2  0
 24 30  1  0
 25 26  1  0
 26 27  2  0
 27 28  1  0
 27 29  1  0
 29 30  2  0
M  END
> <chembl_id>
CHEMBL486422

> <chembl_pref_name>
DAIDZIN

$$$$
CHEMBL1304445
     RDKit          2D

 21 22  0  0  0  0  0  0  0  0999 V2000
   -1.6475   -0.9377    0.0000 S   0  0  0  0  0  0  0  0  0  0  0  0
   -2.4725   -0.9377    0.0000 O   0  0  0  0  0  0  0  0  0  0  0  0
   -0.8225   -0.9377    0.0000 O   0  0  0  0  0  0  0  0  0  0  0  0
   -3.7910    2.7748    0.0000 O   0  0  0  0  0  0  0  0  0  0  0  0
   -2.3620    3.5998    0.0000 O   0  0  0  0  0  0  0  0  0  0  0  0
   -0.2186    0.7123    0.0000 N   0  0  0  0  0  0  0  0  0  0  0  0
   -1.6475   -0.1127    0.0000 C   0  0  0  0  0  0  0  0  0  0  0  0
   -1.6475   -1.7627    0.0000 C   0  0  0  0  0  0  0  0  0  0  0  0
   -2.3620    0.2998    0.0000 C   0  0  0  0  0  0  0  0  0  0  0  0
   -2.3620    1.1248    0.0000 C   0  0  0  0  0  0  0  0  0  0  0  0
   -0.9331   -2.1752    0.0000 C   0  0  0  0  0  0  0  0  0  0  0  0
   -2.3620   -2.1752    0.0000 C   0  0  0  0  0  0  0  0  0  0  0  0
   -0.9331    0.2998    0.0000 C   0  0  0  0  0  0  0  0  0  0  0  0
   -3.0765    1.5373    0.0000 C   0  0  0  0  0  0  0  0  0  0  0  0
   -3.0765    2.3623    0.0000 C   0  0  0  0  0  0  0  0  0  0  0  0
   -1.6475    1.5373    0.0000 C   0  0  0  0  0  0  0  0  0  0  0  0
   -2.3620    2.7748    0.0000 C   0  0  0  0  0  0  0  0  0  0  0  0
   -1.6475    2.3623    0.0000 C   0  0  0  0  0  0  0  0  0  0  0  0
   -0.9331   -3.0002    0.0000 C   0  0  0  0  0  0  0  0  0  0  0  0
   -2.3620   -3.0002    0.0000 C   0  0  0  0  0  0  0  0  0  0  0  0
   -1.6475   -3.4127    0.0000 C   0  0  0  0  0  0  0  0  0  0  0  0
  1  2  2  0
  1  3  2  0
  1  7  1  0
  1  8  1  0
  4 15  1  0
  5 17  1  0
  6 13  3  0
  7  9  2  0
  7 13  1  0
  8 11  2  0
  8 12  1  0
  9 10  1  0
 10 14  1  0
 10 16  2  0
 11 19  1  0
 12 20  2  0
 14 15  2  0
 15 17  1  0
 16 18  1  0
 17 18  2  0
 19 21  2  0
 20 21  1  0
M  END
> <chembl_id>
CHEMBL1304445

> <chembl_pref_name>
None

$$$$
CHEMBL607669
     RDKit          2D

 20 22  0  0  0  0  0  0  0  0999 V2000
    4.4542   -3.4167    0.0000 N   0  0  0  0  0  0  0  0  0  0  0  0
    5.2417   -3.1625    0.0000 C   0  0  0  0  0  0  0  0  0  0  0  0
    3.7917   -2.9375    0.0000 N   0  0  0  0  0  0  0  0  0  0  0  0
    4.2125   -4.2042    0.0000 C   0  0  0  0  0  0  0  0  0  0  0  0
    5.4917   -2.3750    0.0000 C   0  0  0  0  0  0  0  0  0  0  0  0
    5.9042   -3.6417    0.0000 O   0  0  0  0  0  0  0  0  0  0  0  0
    3.1292   -3.4250    0.0000 N   0  0  0  0  0  0  0  0  0  0  0  0
    3.3875   -4.2042    0.0000 C   0  0  0  0  0  0  0  0  0  0  0  0
    6.3167   -2.3667    0.0000 C   0  0  0  0  0  0  0  0  0  0  0  0
    4.6250   -4.9125    0.0000 C   0  0  0  0  0  0  0  0  0  0  0  0
    6.5750   -3.1542    0.0000 C   0  0  0  0  0  0  0  0  0  0  0  0
    2.9792   -4.9167    0.0000 C   0  0  0  0  0  0  0  0  0  0  0  0
    4.2167   -5.6250    0.0000 C   0  0  0  0  0  0  0  0  0  0  0  0
    3.3917   -5.6292    0.0000 C   0  0  0  0  0  0  0  0  0  0  0  0
    5.0042   -1.7042    0.0000 O   0  0  0  0  0  0  0  0  0  0  0  0
    6.8042   -1.7042    0.0000 O   0  0  0  0  0  0  0  0  0  0  0  0
    4.6292   -6.3375    0.0000 Cl  0  0  0  0  0  0  0  0  0  0  0  0
    2.9792   -6.3417    0.0000 Cl  0  0  0  0  0  0  0  0  0  0  0  0
    7.3625   -3.4042    0.0000 C   0  0  0  0  0  0  0  0  0  0  0  0
    7.5292   -4.2167    0.0000 O   0  0  0  0  0  0  0  0  0  0  0  0
  2  1  1  1
  3  1  1  0
  4  1  1  0
  5  2  1  0
  6  2  1  0
  7  3  2  0
  8  4  2  0
  9  5  1  0
 10  4  1  0
 11  6  1  0
 12  8  1  0
 13 10  2  0
 14 13  1  0
  5 15  1  6
  9 16  1  6
 17 13  1  0
 18 14  1  0
 11 19  1  1
 20 19  1  0
  7  8  1  0
 11  9  1  0
 12 14  2  0
M  END
> <chembl_id>
CHEMBL607669

> <chembl_pref_name>
None

$$$$
CHEMBL1500600
     RDKit          2D

 32 36  0  0  0  0  0  0  0  0999 V2000
   -4.1443    0.9163    0.0000 O   0  0  0  0  0  0  0  0  0  0  0  0
   -3.4768    3.0513    0.0000 O   0  0  0  0  0  0  0  0  0  0  0  0
    0.8962   -0.2442    0.0000 O   0  0  0  0  0  0  0  0  0  0  0  0
    4.4686   -1.4817    0.0000 O   0  0  0  0  0  0  0  0  0  0  0  0
   -1.9616    0.5808    0.0000 N   0  0  0  0  0  0  0  0  0  0  0  0
   -1.9616    2.2308    0.0000 N   0  0  0  0  0  0  0  0  0  0  0  0
    1.6107    0.9933    0.0000 N   0  0  0  0  0  0  0  0  0  0  0  0
   -2.6761    0.9933    0.0000 C   0  0  0  0  0  0  0  0  0  0  0  0
   -2.6761    1.8183    0.0000 C   0  0  0  0  0  0  0  0  0  0  0  0
   -1.2472    0.9933    0.0000 C   0  0  0  0  0  0  0  0  0  0  0  0
   -1.2472    1.8183    0.0000 C   0  0  0  0  0  0  0  0  0  0  0  0
   -3.3906    0.5808    0.0000 C   0  0  0  0  0  0  0  0  0  0  0  0
   -3.3906    2.2308    0.0000 C   0  0  0  0  0  0  0  0  0  0  0  0
   -0.5327    0.5808    0.0000 C   0  0  0  0  0  0  0  0  0  0  0  0
    0.1818    0.9933    0.0000 C   0  0  0  0  0  0  0  0  0  0  0  0
   -0.5327    2.2308    0.0000 C   0  0  0  0  0  0  0  0  0  0  0  0
    0.1818    1.8183    0.0000 C   0  0  0  0  0  0  0  0  0  0  0  0
    0.8962    0.5808    0.0000 C   0  0  0  0  0  0  0  0  0  0  0  0
   -3.4768   -0.2397    0.0000 C   0  0  0  0  0  0  0  0  0  0  0  0
   -4.1443    1.8952    0.0000 C   0  0  0  0  0  0  0  0  0  0  0  0
   -4.6963    0.3033    0.0000 C   0  0  0  0  0  0  0  0  0  0  0  0
   -4.2838   -0.4112    0.0000 C   0  0  0  0  0  0  0  0  0  0  0  0
   -4.2838    3.2228    0.0000 C   0  0  0  0  0  0  0  0  0  0  0  0
   -4.6963    2.5083    0.0000 C   0  0  0  0  0  0  0  0  0  0  0  0
    2.3252    0.5808    0.0000 C   0  0  0  0  0  0  0  0  0  0  0  0
    3.0397    0.9933    0.0000 C   0  0  0  0  0  0  0  0  0  0  0  0
    2.3252   -0.2442    0.0000 C   0  0  0  0  0  0  0  0  0  0  0  0
    3.7541   -0.2442    0.0000 C   0  0  0  0  0  0  0  0  0  0  0  0
    3.7541    0.5808    0.0000 C   0  0  0  0  0  0  0  0  0  0  0  0
    3.0397   -0.6567    0.0000 C   0  0  0  0  0  0  0  0  0  0  0  0
    4.4686   -0.6567    0.0000 C   0  0  0  0  0  0  0  0  0  0  0  0
    5.1831   -0.2442    0.0000 C   0  0  0  0  0  0  0  0  0  0  0  0
  1 12  1  0
  1 21  1  0
  2 13  1  0
  2 23  1  0
  3 18  2  0
  4 31  2  0
  5  8  2  0
  5 10  1  0
  6  9  2  0
  6 11  1  0
  7 18  1  0
  7 25  1  0
  8  9  1  0
  8 12  1  0
  9 13  1  0
 10 11  1  0
 10 14  2  0
 11 16  2  0
 12 19  2  0
 13 20  2  0
 14 15  1  0
 15 17  2  0
 15 18  1  0
 16 17  1  0
 19 22  1  0
 20 24  1  0
 21 22  2  0
 23 24  2  0
 25 26  2  0
 25 27  1  0
 26 29  1  0
 27 30  2  0
 28 29  2  0
 28 30  1  0
 28 31  1  0
 31 32  1  0
M  END
> <chembl_id>
CHEMBL1500600

> <chembl_pref_name>
None

$$$$
CHEMBL4087121
     RDKit          2D

 37 39  0  0  0  0  0  0  0  0999 V2000
    3.2688   -8.3453    0.0000 O   0  0  0  0  0  0  0  0  0  0  0  0
    3.6815   -9.0551    0.0000 S   0  0  0  0  0  0  0  0  0  0  0  0
    4.0899   -8.3428    0.0000 O   0  0  0  0  0  0  0  0  0  0  0  0
   12.5715  -11.3912    0.0000 O   0  0  0  0  0  0  0  0  0  0  0  0
   12.1671  -10.6854    0.0000 S   0  0  0  0  0  0  0  0  0  0  0  0
   11.7581  -11.3886    0.0000 O   0  0  0  0  0  0  0  0  0  0  0  0
    7.2227   -9.4555    0.0000 N   0  0  0  0  0  0  0  0  0  0  0  0
    7.2227  -10.2727    0.0000 C   0  0  0  0  0  0  0  0  0  0  0  0
    7.9279  -10.6771    0.0000 C   0  0  0  0  0  0  0  0  0  0  0  0
    8.6332  -10.2727    0.0000 N   0  0  0  0  0  0  0  0  0  0  0  0
    8.6332   -9.4555    0.0000 C   0  0  0  0  0  0  0  0  0  0  0  0
    7.9279   -9.0428    0.0000 C   0  0  0  0  0  0  0  0  0  0  0  0
    9.3403  -10.6823    0.0000 C   0  0  0  0  0  0  0  0  0  0  0  0
   10.0486  -10.2747    0.0000 C   0  0  0  0  0  0  0  0  0  0  0  0
   10.7557  -10.6843    0.0000 C   0  0  0  0  0  0  0  0  0  0  0  0
   11.4640  -10.2768    0.0000 N   0  0  0  0  0  0  0  0  0  0  0  0
   12.8795  -10.2788    0.0000 C   0  0  0  0  0  0  0  0  0  0  0  0
    6.5137   -9.0490    0.0000 C   0  0  0  0  0  0  0  0  0  0  0  0
    5.8072   -9.4596    0.0000 C   0  0  0  0  0  0  0  0  0  0  0  0
    5.0983   -9.0531    0.0000 C   0  0  0  0  0  0  0  0  0  0  0  0
    4.3918   -9.4638    0.0000 N   0  0  0  0  0  0  0  0  0  0  0  0
    2.9764   -9.4679    0.0000 C   0  0  0  0  0  0  0  0  0  0  0  0
    2.2684   -9.0579    0.0000 C   0  0  0  0  0  0  0  0  0  0  0  0
    1.5623   -9.4679    0.0000 C   0  0  0  0  0  0  0  0  0  0  0  0
    1.5643  -10.2860    0.0000 C   0  0  0  0  0  0  0  0  0  0  0  0
    2.2782  -10.6923    0.0000 C   0  0  0  0  0  0  0  0  0  0  0  0
    2.9813  -10.2800    0.0000 C   0  0  0  0  0  0  0  0  0  0  0  0
   13.5831  -10.6925    0.0000 C   0  0  0  0  0  0  0  0  0  0  0  0
   14.2909  -10.2856    0.0000 C   0  0  0  0  0  0  0  0  0  0  0  0
   14.2925   -9.4676    0.0000 C   0  0  0  0  0  0  0  0  0  0  0  0
   13.5805   -9.0581    0.0000 C   0  0  0  0  0  0  0  0  0  0  0  0
   12.8756   -9.4673    0.0000 C   0  0  0  0  0  0  0  0  0  0  0  0
    0.8583  -10.6976    0.0000 Cl  0  0  0  0  0  0  0  0  0  0  0  0
   15.0003   -9.0591    0.0000 C   0  0  0  0  0  0  0  0  0  0  0  0
   15.7080   -9.4677    0.0000 F   0  0  0  0  0  0  0  0  0  0  0  0
   15.0004   -8.2419    0.0000 F   0  0  0  0  0  0  0  0  0  0  0  0
   15.7041   -8.6424    0.0000 F   0  0  0  0  0  0  0  0  0  0  0  0
  2  1  2  0
  3  2  2  0
  5  4  2  0
  6  5  2  0
  7  8  1  0
  7 12  1  0
  8  9  1  0
  9 10  1  0
 10 11  1  0
 11 12  1  0
 10 13  1  0
 13 14  1  0
 14 15  1  0
 15 16  1  0
 16  5  1  0
  5 17  1  0
  7 18  1  0
 18 19  1  0
 19 20  1  0
 20 21  1  0
 21  2  1  0
  2 22  1  0
 22 23  2  0
 23 24  1  0
 24 25  2  0
 25 26  1  0
 26 27  2  0
 27 22  1  0
 17 28  2  0
 28 29  1  0
 29 30  2  0
 30 31  1  0
 31 32  2  0
 32 17  1  0
 25 33  1  0
 30 34  1  0
 34 35  1  0
 34 36  1  0
 34 37  1  0
M  END
> <chembl_id>
CHEMBL4087121

> <chembl_pref_name>
None

$$$$
CHEMBL1299903
     RDKit          2D

 32 35  0  0  0  0  0  0  0  0999 V2000
   -1.2286    1.5562    0.0000 O   0  0  0  0  0  0  0  0  0  0  0  0
    0.5270    1.1830    0.0000 O   0  0  0  0  0  0  0  0  0  0  0  0
   -2.3560    1.4539    0.0000 O   0  0  0  0  0  0  0  0  0  0  0  0
   -2.4616   -0.7519    0.0000 O   0  0  0  0  0  0  0  0  0  0  0  0
    2.1827   -0.5251    0.0000 O   0  0  0  0  0  0  0  0  0  0  0  0
    0.1296   -3.2431    0.0000 O   0  0  0  0  0  0  0  0  0  0  0  0
    0.0001   -0.1895    0.0000 N   0  0  0  0  0  0  0  0  0  0  0  0
   -0.7536   -0.5251    0.0000 C   0  0  0  0  0  0  0  0  0  0  0  0
   -1.3056    0.0880    0.0000 C   0  0  0  0  0  0  0  0  0  0  0  0
   -0.8931    0.8025    0.0000 C   0  0  0  0  0  0  0  0  0  0  0  0
   -0.0861    0.6310    0.0000 C   0  0  0  0  0  0  0  0  0  0  0  0
   -2.1261    0.0018    0.0000 C   0  0  0  0  0  0  0  0  0  0  0  0
   -0.9251   -1.3320    0.0000 C   0  0  0  0  0  0  0  0  0  0  0  0
   -2.6110    0.6692    0.0000 C   0  0  0  0  0  0  0  0  0  0  0  0
    0.7146   -0.6020    0.0000 C   0  0  0  0  0  0  0  0  0  0  0  0
   -0.3120   -1.8841    0.0000 C   0  0  0  0  0  0  0  0  0  0  0  0
   -1.7097   -1.5870    0.0000 C   0  0  0  0  0  0  0  0  0  0  0  0
    1.4291   -0.1895    0.0000 C   0  0  0  0  0  0  0  0  0  0  0  0
   -0.4835   -2.6910    0.0000 C   0  0  0  0  0  0  0  0  0  0  0  0
   -3.4360    0.6692    0.0000 C   0  0  0  0  0  0  0  0  0  0  0  0
   -3.0235    1.9388    0.0000 C   0  0  0  0  0  0  0  0  0  0  0  0
   -1.8812   -2.3939    0.0000 C   0  0  0  0  0  0  0  0  0  0  0  0
   -3.6909    1.4539    0.0000 C   0  0  0  0  0  0  0  0  0  0  0  0
   -1.2681   -2.9460    0.0000 C   0  0  0  0  0  0  0  0  0  0  0  0
    1.5153    0.6310    0.0000 C   0  0  0  0  0  0  0  0  0  0  0  0
    2.7348    0.0880    0.0000 C   0  0  0  0  0  0  0  0  0  0  0  0
    2.3223    0.8025    0.0000 C   0  0  0  0  0  0  0  0  0  0  0  0
   -3.0235    2.7638    0.0000 C   0  0  0  0  0  0  0  0  0  0  0  0
   -0.0419   -4.0500    0.0000 C   0  0  0  0  0  0  0  0  0  0  0  0
    0.5712   -4.6021    0.0000 C   0  0  0  0  0  0  0  0  0  0  0  0
    0.3996   -5.4090    0.0000 C   0  0  0  0  0  0  0  0  0  0  0  0
    1.0127   -5.9611    0.0000 C   0  0  0  0  0  0  0  0  0  0  0  0
  1 10  1  0
  2 11  2  0
  3 14  1  0
  3 21  1  0
  4 12  2  0
  5 18  1  0
  5 26  1  0
  6 19  1  0
  6 29  1  0
  7  8  1  0
  7 11  1  0
  7 15  1  0
  8  9  1  0
  8 13  1  0
  9 10  2  0
  9 12  1  0
 10 11  1  0
 12 14  1  0
 13 16  2  0
 13 17  1  0
 14 20  2  0
 15 18  1  0
 16 19  1  0
 17 22  2  0
 18 25  2  0
 19 24  2  0
 20 23  1  0
 21 23  2  0
 21 28  1  0
 22 24  1  0
 25 27  1  0
 26 27  2  0
 29 30  1  0
 30 31  1  0
 31 32  1  0
M  END
> <chembl_id>
CHEMBL1299903

> <chembl_pref_name>
None

$$$$
CHEMBL1437673
     RDKit          2D

 29 31  0  0  0  0  0  0  0  0999 V2000
   -2.8143    1.8118    0.0000 S   0  0  0  0  0  0  0  0  0  0  0  0
   -4.2433   -0.6632    0.0000 O   0  0  0  0  0  0  0  0  0  0  0  0
    0.7580   -0.2507    0.0000 O   0  0  0  0  0  0  0  0  0  0  0  0
    0.7580   -1.9007    0.0000 O   0  0  0  0  0  0  0  0  0  0  0  0
   -2.0999    0.5743    0.0000 N   0  0  0  0  0  0  0  0  0  0  0  0
   -3.5288    0.5743    0.0000 N   0  0  0  0  0  0  0  0  0  0  0  0
   -2.8143   -2.3132    0.0000 N   0  0  0  0  0  0  0  0  0  0  0  0
   -2.0999   -0.2507    0.0000 C   0  0  0  0  0  0  0  0  0  0  0  0
   -1.3854   -0.6632    0.0000 C   0  0  0  0  0  0  0  0  0  0  0  0
   -2.8143   -0.6632    0.0000 C   0  0  0  0  0  0  0  0  0  0  0  0
   -3.5288   -0.2507    0.0000 C   0  0  0  0  0  0  0  0  0  0  0  0
   -2.8143    0.9868    0.0000 C   0  0  0  0  0  0  0  0  0  0  0  0
   -0.6709   -0.2507    0.0000 C   0  0  0  0  0  0  0  0  0  0  0  0
    0.0436   -0.6632    0.0000 C   0  0  0  0  0  0  0  0  0  0  0  0
   -1.3854   -1.4882    0.0000 C   0  0  0  0  0  0  0  0  0  0  0  0
    0.0436   -1.4882    0.0000 C   0  0  0  0  0  0  0  0  0  0  0  0
   -0.6709   -1.9007    0.0000 C   0  0  0  0  0  0  0  0  0  0  0  0
   -2.8143   -1.4882    0.0000 C   0  0  0  0  0  0  0  0  0  0  0  0
   -3.5288    2.2243    0.0000 C   0  0  0  0  0  0  0  0  0  0  0  0
   -3.5288    3.0493    0.0000 C   0  0  0  0  0  0  0  0  0  0  0  0
    1.4725   -1.4882    0.0000 C   0  0  0  0  0  0  0  0  0  0  0  0
    1.4725   -0.6632    0.0000 C   0  0  0  0  0  0  0  0  0  0  0  0
   -4.2433    3.4618    0.0000 C   0  0  0  0  0  0  0  0  0  0  0  0
   -2.8143    3.4618    0.0000 C   0  0  0  0  0  0  0  0  0  0  0  0
   -4.2433    4.2868    0.0000 C   0  0  0  0  0  0  0  0  0  0  0  0
   -2.8143    4.2868    0.0000 C   0  0  0  0  0  0  0  0  0  0  0  0
    2.1870   -1.9007    0.0000 C   0  0  0  0  0  0  0  0  0  0  0  0
   -3.5288    4.6993    0.0000 C   0  0  0  0  0  0  0  0  0  0  0  0
    2.9014   -1.4882    0.0000 C   0  0  0  0  0  0  0  0  0  0  0  0
  1 12  1  0
  1 19  1  0
  2 11  1  0
  3 14  1  0
  3 22  1  0
  4 16  1  0
  4 21  1  0
  5  8  2  0
  5 12  1  0
  6 11  1  0
  6 12  2  0
  7 18  3  0
  8  9  1  0
  8 10  1  0
  9 13  1  0
  9 15  2  0
 10 11  2  0
 10 18  1  0
 13 14  2  0
 14 16  1  0
 15 17  1  0
 16 17  2  0
 19 20  1  0
 20 23  2  0
 20 24  1  0
 21 27  1  0
 23 25  1  0
 24 26  2  0
 25 28  2  0
 26 28  1  0
 27 29  1  0
M  END
> <chembl_id>
CHEMBL1437673

> <chembl_pref_name>
None

$$$$
CHEMBL1546396
     RDKit          2D

 30 35  0  0  0  0  0  0  0  0999 V2000
    0.2477    0.5711    0.0000 S   0  0  0  0  0  0  0  0  0  0  0  0
   -1.9188   -2.2313    0.0000 O   0  0  0  0  0  0  0  0  0  0  0  0
    1.9701    0.6181    0.0000 O   0  0  0  0  0  0  0  0  0  0  0  0
   -1.6329    1.8826    0.0000 O   0  0  0  0  0  0  0  0  0  0  0  0
   -1.2514    0.7287    0.0000 N   0  0  0  0  0  0  0  0  0  0  0  0
    0.5026   -1.5484    0.0000 N   0  0  0  0  0  0  0  0  0  0  0  0
    1.9701   -0.8108    0.0000 N   0  0  0  0  0  0  0  0  0  0  0  0
   -0.5369   -0.5088    0.0000 C   0  0  0  0  0  0  0  0  0  0  0  0
   -1.2514   -0.9213    0.0000 C   0  0  0  0  0  0  0  0  0  0  0  0
   -0.5369    0.3162    0.0000 C   0  0  0  0  0  0  0  0  0  0  0  0
   -1.9659   -0.5088    0.0000 C   0  0  0  0  0  0  0  0  0  0  0  0
   -1.9659    0.3162    0.0000 C   0  0  0  0  0  0  0  0  0  0  0  0
    0.2477   -0.7638    0.0000 C   0  0  0  0  0  0  0  0  0  0  0  0
    0.7326   -0.0963    0.0000 C   0  0  0  0  0  0  0  0  0  0  0  0
   -1.2514   -1.7463    0.0000 C   0  0  0  0  0  0  0  0  0  0  0  0
   -2.7505    0.5711    0.0000 C   0  0  0  0  0  0  0  0  0  0  0  0
   -2.7505   -0.7638    0.0000 C   0  0  0  0  0  0  0  0  0  0  0  0
    1.5576   -0.0963    0.0000 C   0  0  0  0  0  0  0  0  0  0  0  0
   -3.2354   -0.0963    0.0000 C   0  0  0  0  0  0  0  0  0  0  0  0
   -0.5840   -2.2313    0.0000 C   0  0  0  0  0  0  0  0  0  0  0  0
   -3.0054    1.3557    0.0000 C   0  0  0  0  0  0  0  0  0  0  0  0
    2.7951   -0.8108    0.0000 C   0  0  0  0  0  0  0  0  0  0  0  0
   -2.4534    1.9688    0.0000 C   0  0  0  0  0  0  0  0  0  0  0  0
   -1.6639   -3.0159    0.0000 C   0  0  0  0  0  0  0  0  0  0  0  0
   -0.8389   -3.0159    0.0000 C   0  0  0  0  0  0  0  0  0  0  0  0
    3.5096   -0.3983    0.0000 C   0  0  0  0  0  0  0  0  0  0  0  0
    3.5096   -1.2233    0.0000 C   0  0  0  0  0  0  0  0  0  0  0  0
   -2.6249    2.7758    0.0000 C   0  0  0  0  0  0  0  0  0  0  0  0
   -1.2974    2.6363    0.0000 C   0  0  0  0  0  0  0  0  0  0  0  0
   -1.9105    3.1883    0.0000 C   0  0  0  0  0  0  0  0  0  0  0  0
  1 10  1  0
  1 14  1  0
  2 15  1  0
  2 24  1  0
  3 18  2  0
  4 23  1  0
  4 29  1  0
  5 10  2  0
  5 12  1  0
  6 13  1  0
  7 18  1  0
  7 22  1  0
  8  9  2  0
  8 10  1  0
  8 13  1  0
  9 11  1  0
  9 15  1  0
 11 12  2  0
 11 17  1  0
 12 16  1  0
 13 14  2  0
 14 18  1  0
 15 20  2  0
 16 19  1  0
 16 21  2  0
 17 19  1  0
 20 25  1  0
 21 23  1  0
 22 26  1  0
 22 27  1  0
 23 28  2  0
 24 25  2  0
 26 27  1  0
 28 30  1  0
 29 30  2  0
M  END
> <chembl_id>
CHEMBL1546396

> <chembl_pref_name>
None

$$$$
CHEMBL551334
     RDKit          2D

 31 35  0  0  0  0  0  0  0  0999 V2000
    5.2864   -6.0448    0.0000 C   0  0  0  0  0  0  0  0  0  0  0  0
    4.5720   -5.6323    0.0000 C   0  0  0  0  0  0  0  0  0  0  0  0
    3.8575   -6.0448    0.0000 C   0  0  0  0  0  0  0  0  0  0  0  0
    5.2864   -6.8698    0.0000 C   0  0  0  0  0  0  0  0  0  0  0  0
    4.5720   -7.2823    0.0000 C   0  0  0  0  0  0  0  0  0  0  0  0
    3.8575   -6.8698    0.0000 C   0  0  0  0  0  0  0  0  0  0  0  0
    3.1430   -7.2823    0.0000 O   0  0  0  0  0  0  0  0  0  0  0  0
    3.1430   -8.1073    0.0000 C   0  0  0  0  0  0  0  0  0  0  0  0
    3.8575   -8.5198    0.0000 C   0  0  0  0  0  0  0  0  0  0  0  0
    4.5720   -8.1073    0.0000 C   0  0  0  0  0  0  0  0  0  0  0  0
    2.4285   -8.5198    0.0000 C   0  0  0  0  0  0  0  0  0  0  0  0
    2.4285   -9.3448    0.0000 C   0  0  0  0  0  0  0  0  0  0  0  0
    1.7141   -9.7573    0.0000 C   0  0  0  0  0  0  0  0  0  0  0  0
    1.7141   -8.1073    0.0000 C   0  0  0  0  0  0  0  0  0  0  0  0
    3.8575   -9.3448    0.0000 O   0  0  0  0  0  0  0  0  0  0  0  0
    5.2864   -8.5198    0.0000 O   0  0  0  0  0  0  0  0  0  0  0  0
    6.0009   -7.2823    0.0000 O   0  0  0  0  0  0  0  0  0  0  0  0
    4.5720   -4.8073    0.0000 O   0  0  0  0  0  0  0  0  0  0  0  0
    5.2864   -4.3948    0.0000 C   0  0  0  0  0  0  0  0  0  0  0  0
    5.2864   -3.5698    0.0000 C   0  0  0  0  0  0  0  0  0  0  0  0
    4.5720   -3.1573    0.0000 C   0  0  0  0  0  0  0  0  0  0  0  0
    4.5720   -2.3323    0.0000 C   0  0  0  0  0  0  0  0  0  0  0  0
    5.2864   -1.9198    0.0000 C   0  0  0  0  0  0  0  0  0  0  0  0
    6.0009   -2.3323    0.0000 C   0  0  0  0  0  0  0  0  0  0  0  0
    6.0009   -3.1573    0.0000 C   0  0  0  0  0  0  0  0  0  0  0  0
    5.2864   -1.0948    0.0000 Cl  0  0  0  0  0  0  0  0  0  0  0  0
    0.9996   -8.5198    0.0000 C   0  0  0  0  0  0  0  0  0  0  0  0
    0.9996   -9.3448    0.0000 C   0  0  0  0  0  0  0  0  0  0  0  0
    0.2150   -9.5997    0.0000 O   0  0  0  0  0  0  0  0  0  0  0  0
   -0.2699   -8.9323    0.0000 C   0  0  0  0  0  0  0  0  0  0  0  0
    0.2150   -8.2649    0.0000 O   0  0  0  0  0  0  0  0  0  0  0  0
 14 11  1  0
  1  2  2  0
  9 15  1  0
  5  4  2  0
 10 16  2  0
  4  1  1  0
  4 17  1  0
  5 10  1  0
  2 18  1  0
  6  7  1  0
 18 19  1  0
  7  8  1  0
 19 20  1  0
  8  9  2  0
 20 21  2  0
  9 10  1  0
 21 22  1  0
  5  6  1  0
 22 23  2  0
  8 11  1  0
 23 24  1  0
 24 25  2  0
 25 20  1  0
 11 12  2  0
 23 26  1  0
 27 28  1  0
  2  3  1  0
 12 13  1  0
 13 28  2  0
  3  6  2  0
 27 14  2  0
 28 29  1  0
 29 30  1  0
 30 31  1  0
 31 27  1  0
M  END
> <chembl_id>
CHEMBL551334

> <chembl_pref_name>
None

$$$$
CHEMBL1337018
     RDKit          2D

 37 40  0  0  0  0  0  0  0  0999 V2000
   -0.9974    1.4177    0.0000 S   0  0  0  0  0  0  0  0  0  0  0  0
   -2.1675    3.3139    0.0000 O   0  0  0  0  0  0  0  0  0  0  0  0
   -3.5564    0.3835    0.0000 O   0  0  0  0  0  0  0  0  0  0  0  0
   -4.0965   -0.2401    0.0000 O   0  0  0  0  0  0  0  0  0  0  0  0
   -3.0163   -3.3583    0.0000 O   0  0  0  0  0  0  0  0  0  0  0  0
   -2.7463   -1.9551    0.0000 O   0  0  0  0  0  0  0  0  0  0  0  0
   -2.4762   -0.5519    0.0000 N   0  0  0  0  0  0  0  0  0  0  0  0
   -1.1260   -0.0842    0.0000 N   0  0  0  0  0  0  0  0  0  0  0  0
   -3.0163   -1.1756    0.0000 N   0  0  0  0  0  0  0  0  0  0  0  0
   -3.2864   -2.5788    0.0000 N   0  0  0  0  0  0  0  0  0  0  0  0
   -2.2062    0.8513    0.0000 C   0  0  0  0  0  0  0  0  0  0  0  0
   -2.3083    1.6699    0.0000 C   0  0  0  0  0  0  0  0  0  0  0  0
   -1.3961    0.6954    0.0000 C   0  0  0  0  0  0  0  0  0  0  0  0
   -2.7463    0.2276    0.0000 C   0  0  0  0  0  0  0  0  0  0  0  0
   -1.5612    2.0200    0.0000 C   0  0  0  0  0  0  0  0  0  0  0  0
   -1.6661   -0.7078    0.0000 C   0  0  0  0  0  0  0  0  0  0  0  0
   -2.9849    2.1419    0.0000 C   0  0  0  0  0  0  0  0  0  0  0  0
   -2.9146    2.9639    0.0000 C   0  0  0  0  0  0  0  0  0  0  0  0
   -1.4908    2.8420    0.0000 C   0  0  0  0  0  0  0  0  0  0  0  0
   -3.8265   -1.0197    0.0000 C   0  0  0  0  0  0  0  0  0  0  0  0
   -1.3961   -1.4874    0.0000 C   0  0  0  0  0  0  0  0  0  0  0  0
   -4.3666   -1.6433    0.0000 C   0  0  0  0  0  0  0  0  0  0  0  0
   -3.2905    3.6982    0.0000 C   0  0  0  0  0  0  0  0  0  0  0  0
   -3.7336    3.0629    0.0000 C   0  0  0  0  0  0  0  0  0  0  0  0
   -4.0965   -2.4229    0.0000 C   0  0  0  0  0  0  0  0  0  0  0  0
   -1.9362   -2.1110    0.0000 C   0  0  0  0  0  0  0  0  0  0  0  0
   -5.1767   -1.4874    0.0000 C   0  0  0  0  0  0  0  0  0  0  0  0
   -4.6366   -3.0465    0.0000 C   0  0  0  0  0  0  0  0  0  0  0  0
   -5.7168   -2.1110    0.0000 C   0  0  0  0  0  0  0  0  0  0  0  0
   -5.4467   -2.8906    0.0000 C   0  0  0  0  0  0  0  0  0  0  0  0
   -1.6661   -2.8906    0.0000 C   0  0  0  0  0  0  0  0  0  0  0  0
   -0.8560   -3.0465    0.0000 C   0  0  0  0  0  0  0  0  0  0  0  0
   -0.3159   -2.4229    0.0000 C   0  0  0  0  0  0  0  0  0  0  0  0
    0.4943   -2.5788    0.0000 C   0  0  0  0  0  0  0  0  0  0  0  0
    1.0343   -1.9551    0.0000 C   0  0  0  0  0  0  0  0  0  0  0  0
    1.8445   -2.1110    0.0000 C   0  0  0  0  0  0  0  0  0  0  0  0
    2.3846   -1.4874    0.0000 C   0  0  0  0  0  0  0  0  0  0  0  0
  1 13  1  0
  1 15  1  0
  2 18  1  0
  2 19  1  0
  3 14  2  0
  4 20  2  0
  5 10  1  0
  6 10  2  0
  7  9  1  0
  7 14  1  0
  7 16  1  0
  8 13  1  0
  8 16  2  0
  9 20  1  0
 10 25  1  0
 11 12  1  0
 11 13  2  0
 11 14  1  0
 12 15  2  0
 12 17  1  0
 15 19  1  0
 16 21  1  0
 17 18  1  0
 18 23  1  0
 18 24  1  0
 20 22  1  0
 21 26  1  0
 22 25  1  0
 22 27  2  0
 25 28  2  0
 26 31  1  0
 27 29  1  0
 28 30  1  0
 29 30  2  0
 31 32  1  0
 32 33  1  0
 33 34  1  0
 34 35  1  0
 35 36  1  0
 36 37  1  0
M  CHG  2   5  -1  10   1
M  END
> <chembl_id>
CHEMBL1337018

> <chembl_pref_name>
None

$$$$
CHEMBL1595621
     RDKit          2D

 20 21  0  0  0  0  0  0  0  0999 V2000
    0.2269   -2.5875    0.0000 S   0  0  0  0  0  0  0  0  0  0  0  0
   -3.2903   -2.0355    0.0000 S   0  0  0  0  0  0  0  0  0  0  0  0
    0.7414   -0.1666    0.0000 O   0  0  0  0  0  0  0  0  0  0  0  0
   -0.2147   -1.2285    0.0000 O   0  0  0  0  0  0  0  0  0  0  0  0
   -1.8383   -1.8055    0.0000 N   0  0  0  0  0  0  0  0  0  0  0  0
   -1.4258   -3.0751    0.0000 N   0  0  0  0  0  0  0  0  0  0  0  0
   -2.2508   -3.0751    0.0000 N   0  0  0  0  0  0  0  0  0  0  0  0
    0.5699   -0.9736    0.0000 N   0  0  0  0  0  0  0  0  0  0  0  0
   -1.1708   -2.2904    0.0000 C   0  0  0  0  0  0  0  0  0  0  0  0
   -2.5057   -2.2904    0.0000 C   0  0  0  0  0  0  0  0  0  0  0  0
    1.0115   -2.3326    0.0000 C   0  0  0  0  0  0  0  0  0  0  0  0
    1.1830   -1.5256    0.0000 C   0  0  0  0  0  0  0  0  0  0  0  0
   -0.3862   -2.0355    0.0000 C   0  0  0  0  0  0  0  0  0  0  0  0
   -1.8383   -0.9805    0.0000 C   0  0  0  0  0  0  0  0  0  0  0  0
    1.6246   -2.8846    0.0000 C   0  0  0  0  0  0  0  0  0  0  0  0
    1.9676   -1.2707    0.0000 C   0  0  0  0  0  0  0  0  0  0  0  0
    2.4092   -2.6297    0.0000 C   0  0  0  0  0  0  0  0  0  0  0  0
    2.5807   -1.8227    0.0000 C   0  0  0  0  0  0  0  0  0  0  0  0
   -2.5528   -0.5680    0.0000 C   0  0  0  0  0  0  0  0  0  0  0  0
   -3.2672   -0.9805    0.0000 C   0  0  0  0  0  0  0  0  0  0  0  0
  1 11  1  0
  1 13  1  0
  2 10  1  0
  3  8  1  0
  4  8  2  0
  5  9  1  0
  5 10  1  0
  5 14  1  0
  6  7  1  0
  6  9  2  0
  7 10  2  0
  8 12  1  0
  9 13  1  0
 11 12  1  0
 11 15  2  0
 12 16  2  0
 14 19  1  0
 15 17  1  0
 16 18  1  0
 17 18  2  0
 19 20  2  0
M  CHG  2   3  -1   8   1
M  END
> <chembl_id>
CHEMBL1595621

> <chembl_pref_name>
None

$$$$
CHEMBL150
     RDKit          2D

 21 23  0  0  0  0  0  0  0  0999 V2000
   -2.4348   -0.7085    0.0000 C   0  0  0  0  0  0  0  0  0  0  0  0
   -1.7203   -1.1210    0.0000 C   0  0  0  0  0  0  0  0  0  0  0  0
   -1.0058   -0.7085    0.0000 C   0  0  0  0  0  0  0  0  0  0  0  0
   -1.0058    0.1165    0.0000 C   0  0  0  0  0  0  0  0  0  0  0  0
   -1.7203    0.5290    0.0000 C   0  0  0  0  0  0  0  0  0  0  0  0
   -2.4348    0.1165    0.0000 C   0  0  0  0  0  0  0  0  0  0  0  0
   -0.2914   -1.1210    0.0000 C   0  0  0  0  0  0  0  0  0  0  0  0
    0.4231   -0.7085    0.0000 C   0  0  0  0  0  0  0  0  0  0  0  0
    0.4231    0.1165    0.0000 C   0  0  0  0  0  0  0  0  0  0  0  0
    1.1376    0.5290    0.0000 C   0  0  0  0  0  0  0  0  0  0  0  0
    1.1376    1.3540    0.0000 C   0  0  0  0  0  0  0  0  0  0  0  0
    1.8521    1.7665    0.0000 C   0  0  0  0  0  0  0  0  0  0  0  0
    2.5665    1.3540    0.0000 C   0  0  0  0  0  0  0  0  0  0  0  0
    2.5665    0.5290    0.0000 C   0  0  0  0  0  0  0  0  0  0  0  0
    1.8521    0.1165    0.0000 C   0  0  0  0  0  0  0  0  0  0  0  0
   -0.2914    0.5290    0.0000 O   0  0  0  0  0  0  0  0  0  0  0  0
   -0.2914   -1.9460    0.0000 O   0  0  0  0  0  0  0  0  0  0  0  0
    3.2810    1.7665    0.0000 O   0  0  0  0  0  0  0  0  0  0  0  0
    1.1376   -1.1210    0.0000 O   0  0  0  0  0  0  0  0  0  0  0  0
   -3.1492    0.5290    0.0000 O   0  0  0  0  0  0  0  0  0  0  0  0
   -1.7203   -1.9460    0.0000 O   0  0  0  0  0  0  0  0  0  0  0  0
  1  2  2  0
  1  6  1  0
  2  3  1  0
  2 21  1  0
  3  4  2  0
  3  7  1  0
  4  5  1  0
  4 16  1  0
  5  6  2  0
  6 20  1  0
  8  7  1  0
  7 17  2  0
  8  9  2  0
  8 19  1  0
  9 10  1  0
  9 16  1  0
 10 11  2  0
 10 15  1  0
 11 12  1  0
 12 13  2  0
 13 14  1  0
 13 18  1  0
 14 15  2  0
M  END
> <chembl_id>
CHEMBL150

> <chembl_pref_name>
KAEMPFEROL

$$$$
CHEMBL5201761
     RDKit          2D

 20 22  0  0  0  0  0  0  0  0999 V2000
   -2.1389    0.4132    0.0000 C   0  0  0  0  0  0  0  0  0  0  0  0
   -1.4244    0.8255    0.0000 C   0  0  0  0  0  0  0  0  0  0  0  0
   -0.7125    0.4136    0.0000 C   0  0  0  0  0  0  0  0  0  0  0  0
   -0.7125   -0.4114    0.0000 C   0  0  0  0  0  0  0  0  0  0  0  0
   -1.4227   -0.8232    0.0000 C   0  0  0  0  0  0  0  0  0  0  0  0
   -2.1389   -0.4151    0.0000 C   0  0  0  0  0  0  0  0  0  0  0  0
    0.0001    0.8245    0.0000 C   0  0  0  0  0  0  0  0  0  0  0  0
    0.7150    0.4120    0.0000 C   0  0  0  0  0  0  0  0  0  0  0  0
    0.7168   -0.4089    0.0000 C   0  0  0  0  0  0  0  0  0  0  0  0
    0.0052   -0.8256    0.0000 C   0  0  0  0  0  0  0  0  0  0  0  0
    1.4232    0.8224    0.0000 C   0  0  0  0  0  0  0  0  0  0  0  0
    2.1354    0.4136    0.0000 C   0  0  0  0  0  0  0  0  0  0  0  0
    2.1389   -0.4032    0.0000 C   0  0  0  0  0  0  0  0  0  0  0  0
    1.4319   -0.8194    0.0000 C   0  0  0  0  0  0  0  0  0  0  0  0
    0.0052   -1.6466    0.0000 O   0  0  0  0  0  0  0  0  0  0  0  0
    0.0001    1.6456    0.0000 O   0  0  0  0  0  0  0  0  0  0  0  0
   -1.4244    1.6466    0.0000 O   0  0  0  0  0  0  0  0  0  0  0  0
   -1.4227   -1.6443    0.0000 O   0  0  0  0  0  0  0  0  0  0  0  0
    1.4232    1.6435    0.0000 O   0  0  0  0  0  0  0  0  0  0  0  0
    1.4319   -1.6405    0.0000 O   0  0  0  0  0  0  0  0  0  0  0  0
  2  1  2  0
  3  2  1  0
  4  3  2  0
  5  4  1  0
  1  6  1  0
  6  5  2  0
  3  7  1  0
  8  7  1  0
  9  8  2  0
 10  9  1  0
  4 10  1  0
  8 11  1  0
 12 11  2  0
 13 12  1  0
 14 13  2  0
  9 14  1  0
 10 15  2  0
  7 16  2  0
  2 17  1  0
  5 18  1  0
 11 19  1  0
 14 20  1  0
M  END
> <chembl_id>
CHEMBL5201761

> <chembl_pref_name>
None

$$$$
CHEMBL4088149
     RDKit          2D

 32 34  0  0  0  0  0  0  0  0999 V2000
   20.0253  -22.5347    0.0000 O   0  0  0  0  0  0  0  0  0  0  0  0
   19.6208  -21.8289    0.0000 S   0  0  0  0  0  0  0  0  0  0  0  0
   19.2119  -22.5321    0.0000 O   0  0  0  0  0  0  0  0  0  0  0  0
   27.6978  -19.4888    0.0000 O   0  0  0  0  0  0  0  0  0  0  0  0
   28.1106  -20.1987    0.0000 S   0  0  0  0  0  0  0  0  0  0  0  0
   28.5190  -19.4863    0.0000 O   0  0  0  0  0  0  0  0  0  0  0  0
   23.1620  -20.5990    0.0000 C   0  0  0  0  0  0  0  0  0  0  0  0
   23.1620  -21.4162    0.0000 N   0  0  0  0  0  0  0  0  0  0  0  0
   23.8673  -21.8207    0.0000 C   0  0  0  0  0  0  0  0  0  0  0  0
   24.5726  -21.4162    0.0000 C   0  0  0  0  0  0  0  0  0  0  0  0
   24.5726  -20.5990    0.0000 N   0  0  0  0  0  0  0  0  0  0  0  0
   23.8673  -20.1863    0.0000 C   0  0  0  0  0  0  0  0  0  0  0  0
   25.2815  -20.1925    0.0000 C   0  0  0  0  0  0  0  0  0  0  0  0
   25.9880  -20.6031    0.0000 C   0  0  0  0  0  0  0  0  0  0  0  0
   26.6969  -20.1966    0.0000 C   0  0  0  0  0  0  0  0  0  0  0  0
   27.4034  -20.6073    0.0000 N   0  0  0  0  0  0  0  0  0  0  0  0
   28.8188  -20.6114    0.0000 C   0  0  0  0  0  0  0  0  0  0  0  0
   28.8112  -21.4296    0.0000 C   0  0  0  0  0  0  0  0  0  0  0  0
   29.5168  -21.8402    0.0000 N   0  0  0  0  0  0  0  0  0  0  0  0
   30.2267  -21.4336    0.0000 C   0  0  0  0  0  0  0  0  0  0  0  0
   30.2265  -20.6122    0.0000 C   0  0  0  0  0  0  0  0  0  0  0  0
   29.5202  -20.2053    0.0000 C   0  0  0  0  0  0  0  0  0  0  0  0
   22.4549  -21.8258    0.0000 C   0  0  0  0  0  0  0  0  0  0  0  0
   21.7466  -21.4182    0.0000 C   0  0  0  0  0  0  0  0  0  0  0  0
   21.0395  -21.8279    0.0000 C   0  0  0  0  0  0  0  0  0  0  0  0
   20.3312  -21.4203    0.0000 N   0  0  0  0  0  0  0  0  0  0  0  0
   18.9158  -21.4224    0.0000 C   0  0  0  0  0  0  0  0  0  0  0  0
   18.9139  -20.6061    0.0000 C   0  0  0  0  0  0  0  0  0  0  0  0
   18.2064  -20.1986    0.0000 N   0  0  0  0  0  0  0  0  0  0  0  0
   17.5006  -20.6083    0.0000 C   0  0  0  0  0  0  0  0  0  0  0  0
   17.5050  -21.4297    0.0000 C   0  0  0  0  0  0  0  0  0  0  0  0
   18.2102  -21.8335    0.0000 C   0  0  0  0  0  0  0  0  0  0  0  0
  2  1  2  0
  3  2  2  0
  5  4  2  0
  6  5  2  0
  7  8  1  0
  7 12  1  0
  8  9  1  0
  9 10  1  0
 10 11  1  0
 11 12  1  0
 11 13  1  0
 13 14  1  0
 14 15  1  0
 15 16  1  0
 16  5  1  0
  5 17  1  0
 17 18  2  0
 18 19  1  0
 19 20  2  0
 20 21  1  0
 21 22  2  0
 22 17  1  0
  8 23  1  0
 23 24  1  0
 24 25  1  0
 25 26  1  0
 26  2  1  0
  2 27  1  0
 27 28  2  0
 28 29  1  0
 29 30  2  0
 30 31  1  0
 31 32  2  0
 32 27  1  0
M  END
> <chembl_id>
CHEMBL4088149

> <chembl_pref_name>
None

$$$$
CHEMBL2059292
     RDKit          2D

 14 14  0  0  0  0  0  0  0  0999 V2000
   10.5444  -22.5291    0.0000 C   0  0  0  0  0  0  0  0  0  0  0  0
   10.5432  -23.3565    0.0000 C   0  0  0  0  0  0  0  0  0  0  0  0
   11.2581  -23.7694    0.0000 C   0  0  0  0  0  0  0  0  0  0  0  0
   11.9745  -23.3560    0.0000 C   0  0  0  0  0  0  0  0  0  0  0  0
   11.9716  -22.5255    0.0000 C   0  0  0  0  0  0  0  0  0  0  0  0
   11.2563  -22.1164    0.0000 C   0  0  0  0  0  0  0  0  0  0  0  0
   11.2538  -21.2914    0.0000 O   0  0  0  0  0  0  0  0  0  0  0  0
   12.6846  -22.1103    0.0000 O   0  0  0  0  0  0  0  0  0  0  0  0
   13.4006  -22.5201    0.0000 C   0  0  0  0  0  0  0  0  0  0  0  0
    9.8298  -22.1168    0.0000 O   0  0  0  0  0  0  0  0  0  0  0  0
    9.1155  -22.5295    0.0000 C   0  0  0  0  0  0  0  0  0  0  0  0
   11.2579  -24.5944    0.0000 C   0  0  0  0  0  0  0  0  0  0  0  0
   10.5433  -25.0067    0.0000 C   0  0  0  0  0  0  0  0  0  0  0  0
   10.5431  -25.8317    0.0000 C   0  0  0  0  0  0  0  0  0  0  0  0
  6  7  1  0
  3  4  2  0
  5  8  1  0
  8  9  1  0
  4  5  1  0
  1 10  1  0
  2  3  1  0
 10 11  1  0
  5  6  2  0
  3 12  1  0
  6  1  1  0
 12 13  1  0
  1  2  2  0
 13 14  2  0
M  END
> <chembl_id>
CHEMBL2059292

> <chembl_pref_name>
METHOXYEUGENOL

$$$$
CHEMBL175888
     RDKit          2D

 25 27  0  0  0  0  0  0  0  0999 V2000
    0.3542   -2.7417    0.0000 C   0  0  0  0  0  0  0  0  0  0  0  0
    0.3125   -1.9042    0.0000 C   0  0  0  0  0  0  0  0  0  0  0  0
    1.7417   -1.5792    0.0000 N   0  0  0  0  0  0  0  0  0  0  0  0
    0.9500   -1.4000    0.0000 C   0  0  0  0  0  0  0  0  0  0  0  0
    1.7417   -3.0792    0.0000 N   0  0  0  0  0  0  0  0  0  0  0  0
   -0.4125   -3.0417    0.0000 N   0  0  0  0  0  0  0  0  0  0  0  0
    0.9500   -3.2667    0.0000 C   0  0  0  0  0  0  0  0  0  0  0  0
    2.0917   -2.3292    0.0000 C   0  0  0  0  0  0  0  0  0  0  0  0
   -0.4750   -1.6792    0.0000 N   0  0  0  0  0  0  0  0  0  0  0  0
   -0.9125   -2.3917    0.0000 C   0  0  0  0  0  0  0  0  0  0  0  0
    0.7375   -0.5792    0.0000 O   0  0  0  0  0  0  0  0  0  0  0  0
    0.5375   -3.9792    0.0000 O   0  0  0  0  0  0  0  0  0  0  0  0
   -0.7625   -0.9000    0.0000 C   0  0  0  0  0  0  0  0  0  0  0  0
    2.9125   -2.3167    0.0000 N   0  0  0  0  0  0  0  0  0  0  0  0
   -0.3625   -0.1792    0.0000 O   0  0  0  0  0  0  0  0  0  0  0  0
   -0.7875    3.4458    0.0000 C   0  0  0  0  0  0  0  0  0  0  0  0
   -0.7750    1.9958    0.0000 O   0  0  0  0  0  0  0  0  0  0  0  0
   -0.3750    2.7208    0.0000 C   0  0  0  0  0  0  0  0  0  0  0  0
   -0.7750    0.5458    0.0000 C   0  0  0  0  0  0  0  0  0  0  0  0
   -0.3750    1.2625    0.0000 C   0  0  0  0  0  0  0  0  0  0  0  0
   -0.3833    4.1542    0.0000 C   0  0  0  0  0  0  0  0  0  0  0  0
   -1.6000    3.4333    0.0000 C   0  0  0  0  0  0  0  0  0  0  0  0
   -0.7875    4.8792    0.0000 C   0  0  0  0  0  0  0  0  0  0  0  0
   -2.0125    4.1375    0.0000 C   0  0  0  0  0  0  0  0  0  0  0  0
   -1.6083    4.8792    0.0000 C   0  0  0  0  0  0  0  0  0  0  0  0
  2  1  2  0
  3  4  1  0
  4  2  1  0
  5  7  1  0
  6  1  1  0
  7  1  1  0
  8  5  1  0
  9  2  1  0
 10  6  2  0
 11  4  2  0
 12  7  2  0
 13  9  1  0
 14  8  1  0
 15 13  1  0
 16 18  1  0
 17 20  1  0
 18 17  1  0
 19 15  1  0
 20 19  1  0
 21 16  2  0
 22 16  1  0
 23 21  1  0
 24 22  2  0
 25 24  1  0
 10  9  1  0
  8  3  2  0
 25 23  2  0
M  END
> <chembl_id>
CHEMBL175888

> <chembl_pref_name>
None

$$$$
CHEMBL4076316
     RDKit          2D

 37 39  0  0  0  0  0  0  0  0999 V2000
   19.4723   -3.5205    0.0000 O   0  0  0  0  0  0  0  0  0  0  0  0
   19.8850   -4.2304    0.0000 S   0  0  0  0  0  0  0  0  0  0  0  0
   20.2934   -3.5180    0.0000 O   0  0  0  0  0  0  0  0  0  0  0  0
   28.7750   -6.5664    0.0000 O   0  0  0  0  0  0  0  0  0  0  0  0
   28.3706   -5.8607    0.0000 S   0  0  0  0  0  0  0  0  0  0  0  0
   27.9616   -6.5638    0.0000 O   0  0  0  0  0  0  0  0  0  0  0  0
   23.4261   -4.6308    0.0000 N   0  0  0  0  0  0  0  0  0  0  0  0
   23.4261   -5.4479    0.0000 C   0  0  0  0  0  0  0  0  0  0  0  0
   24.1314   -5.8524    0.0000 C   0  0  0  0  0  0  0  0  0  0  0  0
   24.8367   -5.4479    0.0000 N   0  0  0  0  0  0  0  0  0  0  0  0
   24.8367   -4.6308    0.0000 C   0  0  0  0  0  0  0  0  0  0  0  0
   24.1314   -4.2180    0.0000 C   0  0  0  0  0  0  0  0  0  0  0  0
   25.5438   -5.8576    0.0000 C   0  0  0  0  0  0  0  0  0  0  0  0
   26.2521   -5.4500    0.0000 C   0  0  0  0  0  0  0  0  0  0  0  0
   26.9592   -5.8596    0.0000 C   0  0  0  0  0  0  0  0  0  0  0  0
   27.6675   -5.4520    0.0000 N   0  0  0  0  0  0  0  0  0  0  0  0
   29.0830   -5.4541    0.0000 C   0  0  0  0  0  0  0  0  0  0  0  0
   22.7172   -4.2242    0.0000 C   0  0  0  0  0  0  0  0  0  0  0  0
   22.0107   -4.6349    0.0000 C   0  0  0  0  0  0  0  0  0  0  0  0
   21.3018   -4.2284    0.0000 C   0  0  0  0  0  0  0  0  0  0  0  0
   20.5953   -4.6390    0.0000 N   0  0  0  0  0  0  0  0  0  0  0  0
   19.1799   -4.6432    0.0000 C   0  0  0  0  0  0  0  0  0  0  0  0
   18.4719   -4.2332    0.0000 C   0  0  0  0  0  0  0  0  0  0  0  0
   17.7658   -4.6432    0.0000 C   0  0  0  0  0  0  0  0  0  0  0  0
   17.7678   -5.4612    0.0000 C   0  0  0  0  0  0  0  0  0  0  0  0
   18.4817   -5.8676    0.0000 C   0  0  0  0  0  0  0  0  0  0  0  0
   19.1848   -5.4553    0.0000 C   0  0  0  0  0  0  0  0  0  0  0  0
   29.7866   -5.8678    0.0000 C   0  0  0  0  0  0  0  0  0  0  0  0
   30.4944   -5.4609    0.0000 C   0  0  0  0  0  0  0  0  0  0  0  0
   30.4960   -4.6428    0.0000 C   0  0  0  0  0  0  0  0  0  0  0  0
   29.7840   -4.2334    0.0000 C   0  0  0  0  0  0  0  0  0  0  0  0
   29.0791   -4.6426    0.0000 C   0  0  0  0  0  0  0  0  0  0  0  0
   17.0618   -5.8728    0.0000 C   0  0  0  0  0  0  0  0  0  0  0  0
   16.3524   -5.4673    0.0000 C   0  0  0  0  0  0  0  0  0  0  0  0
   17.0653   -6.6900    0.0000 C   0  0  0  0  0  0  0  0  0  0  0  0
   16.3480   -6.2734    0.0000 C   0  0  0  0  0  0  0  0  0  0  0  0
   31.2038   -4.2343    0.0000 C   0  0  0  0  0  0  0  0  0  0  0  0
  2  1  2  0
  3  2  2  0
  5  4  2  0
  6  5  2  0
  7  8  1  0
  7 12  1  0
  8  9  1  0
  9 10  1  0
 10 11  1  0
 11 12  1  0
 10 13  1  0
 13 14  1  0
 14 15  1  0
 15 16  1  0
 16  5  1  0
  5 17  1  0
  7 18  1  0
 18 19  1  0
 19 20  1  0
 20 21  1  0
 21  2  1  0
  2 22  1  0
 22 23  2  0
 23 24  1  0
 24 25  2  0
 25 26  1  0
 26 27  2  0
 27 22  1  0
 17 28  2  0
 28 29  1  0
 29 30  2  0
 30 31  1  0
 31 32  2  0
 32 17  1  0
 25 33  1  0
 33 34  1  0
 33 35  1  0
 33 36  1  0
 30 37  1  0
M  END
> <chembl_id>
CHEMBL4076316

> <chembl_pref_name>
None

$$$$
CHEMBL1499658
     RDKit          2D

 34 38  0  0  0  0  0  0  0  0999 V2000
   -2.2335   -0.9682    0.0000 S   0  0  0  0  0  0  0  0  0  0  0  0
   -1.5190    1.9193    0.0000 O   0  0  0  0  0  0  0  0  0  0  0  0
   -3.6624   -3.4432    0.0000 O   0  0  0  0  0  0  0  0  0  0  0  0
    1.3389    0.2693    0.0000 O   0  0  0  0  0  0  0  0  0  0  0  0
   -2.9479    1.9193    0.0000 O   0  0  0  0  0  0  0  0  0  0  0  0
    1.3389    1.9193    0.0000 O   0  0  0  0  0  0  0  0  0  0  0  0
   -5.8058   -2.2057    0.0000 O   0  0  0  0  0  0  0  0  0  0  0  0
   -2.9479   -2.2057    0.0000 N   0  0  0  0  0  0  0  0  0  0  0  0
   -1.5190   -2.2057    0.0000 N   0  0  0  0  0  0  0  0  0  0  0  0
   -2.2335   -1.7932    0.0000 C   0  0  0  0  0  0  0  0  0  0  0  0
   -2.9479   -3.0307    0.0000 C   0  0  0  0  0  0  0  0  0  0  0  0
   -2.2335   -3.4432    0.0000 C   0  0  0  0  0  0  0  0  0  0  0  0
   -1.5190   -3.0307    0.0000 C   0  0  0  0  0  0  0  0  0  0  0  0
   -3.6624   -1.7932    0.0000 C   0  0  0  0  0  0  0  0  0  0  0  0
   -0.8045    0.6818    0.0000 C   0  0  0  0  0  0  0  0  0  0  0  0
   -1.5190    0.2693    0.0000 C   0  0  0  0  0  0  0  0  0  0  0  0
   -0.8045    1.5068    0.0000 C   0  0  0  0  0  0  0  0  0  0  0  0
   -1.5190   -0.5557    0.0000 C   0  0  0  0  0  0  0  0  0  0  0  0
   -0.0900    0.2693    0.0000 C   0  0  0  0  0  0  0  0  0  0  0  0
   -2.2335   -4.2682    0.0000 C   0  0  0  0  0  0  0  0  0  0  0  0
   -2.2335    0.6818    0.0000 C   0  0  0  0  0  0  0  0  0  0  0  0
   -0.0900    1.9193    0.0000 C   0  0  0  0  0  0  0  0  0  0  0  0
    0.6244    0.6818    0.0000 C   0  0  0  0  0  0  0  0  0  0  0  0
   -2.2335    1.5068    0.0000 C   0  0  0  0  0  0  0  0  0  0  0  0
   -0.8045   -3.4432    0.0000 C   0  0  0  0  0  0  0  0  0  0  0  0
   -4.3769   -2.2057    0.0000 C   0  0  0  0  0  0  0  0  0  0  0  0
    0.6244    1.5068    0.0000 C   0  0  0  0  0  0  0  0  0  0  0  0
   -3.6624   -0.9682    0.0000 C   0  0  0  0  0  0  0  0  0  0  0  0
   -5.0913   -1.7932    0.0000 C   0  0  0  0  0  0  0  0  0  0  0  0
   -1.5190   -4.6807    0.0000 C   0  0  0  0  0  0  0  0  0  0  0  0
   -0.8045   -4.2682    0.0000 C   0  0  0  0  0  0  0  0  0  0  0  0
   -4.3769   -0.5557    0.0000 C   0  0  0  0  0  0  0  0  0  0  0  0
   -5.0913   -0.9682    0.0000 C   0  0  0  0  0  0  0  0  0  0  0  0
   -5.8058   -3.0307    0.0000 C   0  0  0  0  0  0  0  0  0  0  0  0
  1 10  1  0
  1 18  1  0
  2 17  1  0
  2 24  1  0
  3 11  2  0
  4 23  1  0
  5 24  2  0
  6 27  1  0
  7 29  1  0
  7 34  1  0
  8 10  1  0
  8 11  1  0
  8 14  1  0
  9 10  2  0
  9 13  1  0
 11 12  1  0
 12 13  1  0
 12 20  2  0
 13 25  2  0
 14 26  2  0
 14 28  1  0
 15 16  1  0
 15 17  1  0
 15 19  2  0
 16 18  1  0
 16 21  2  0
 17 22  2  0
 19 23  1  0
 20 30  1  0
 21 24  1  0
 22 27  1  0
 23 27  2  0
 25 31  1  0
 26 29  1  0
 28 32  2  0
 29 33  2  0
 30 31  2  0
 32 33  1  0
M  END
> <chembl_id>
CHEMBL1499658

> <chembl_pref_name>
None

$$$$
CHEMBL492571
     RDKit          2D

 22 23  0  0  0  0  0  0  0  0999 V2000
    0.8890  -10.9383    0.0000 C   0  0  0  0  0  0  0  0  0  0  0  0
    0.8890  -10.1133    0.0000 C   0  0  0  0  0  0  0  0  0  0  0  0
    0.1745   -9.7008    0.0000 C   0  0  0  0  0  0  0  0  0  0  0  0
   -0.5399  -10.1133    0.0000 C   0  0  0  0  0  0  0  0  0  0  0  0
   -0.5399  -10.9383    0.0000 C   0  0  0  0  0  0  0  0  0  0  0  0
    0.1745  -11.3508    0.0000 C   0  0  0  0  0  0  0  0  0  0  0  0
   -1.2544  -11.3508    0.0000 C   0  0  0  0  0  0  0  0  0  0  0  0
   -1.2544  -12.1758    0.0000 C   0  0  0  0  0  0  0  0  0  0  0  0
   -1.9689  -10.9383    0.0000 O   0  0  0  0  0  0  0  0  0  0  0  0
   -1.9689  -12.5883    0.0000 C   0  0  0  0  0  0  0  0  0  0  0  0
   -1.9689  -13.4133    0.0000 C   0  0  0  0  0  0  0  0  0  0  0  0
   -2.6833  -12.1758    0.0000 O   0  0  0  0  0  0  0  0  0  0  0  0
   -2.6833  -13.8258    0.0000 O   0  0  0  0  0  0  0  0  0  0  0  0
   -1.2544  -13.8258    0.0000 O   0  0  0  0  0  0  0  0  0  0  0  0
    0.1745   -8.8758    0.0000 N   0  0  0  0  0  0  0  0  0  0  0  0
   -0.5399   -8.4633    0.0000 C   0  0  0  0  0  0  0  0  0  0  0  0
   -0.5399   -7.6383    0.0000 C   0  0  0  0  0  0  0  0  0  0  0  0
   -1.2544   -7.2258    0.0000 C   0  0  0  0  0  0  0  0  0  0  0  0
   -1.2544   -6.4008    0.0000 C   0  0  0  0  0  0  0  0  0  0  0  0
   -0.5399   -5.9883    0.0000 C   0  0  0  0  0  0  0  0  0  0  0  0
    0.1745   -6.4008    0.0000 C   0  0  0  0  0  0  0  0  0  0  0  0
    0.1745   -7.2258    0.0000 C   0  0  0  0  0  0  0  0  0  0  0  0
 10 11  1  0
  5  6  2  0
 10 12  1  0
  6  1  1  0
 11 13  2  0
  1  2  2  0
 11 14  1  0
  5  7  1  0
  3 15  1  0
  3  4  2  0
 15 16  1  0
  7  8  1  0
 16 17  1  0
 17 18  2  0
  7  9  2  0
 18 19  1  0
  4  5  1  0
 19 20  2  0
  8 10  2  0
 20 21  1  0
  2  3  1  0
 21 22  2  0
 22 17  1  0
M  END
> <chembl_id>
CHEMBL492571

> <chembl_pref_name>
None

$$$$
CHEMBL2059291
     RDKit          2D

 27 29  0  0  0  0  0  0  0  0999 V2000
   -2.4391  -24.3702    0.0000 C   0  0  0  0  0  0  0  0  0  0  0  0
   -3.2629  -24.3721    0.0000 C   0  0  0  0  0  0  0  0  0  0  0  0
   -2.8494  -25.0859    0.0000 C   0  0  0  0  0  0  0  0  0  0  0  0
   -2.4391  -23.5423    0.0000 C   0  0  0  0  0  0  0  0  0  0  0  0
   -1.7239  -24.7800    0.0000 O   0  0  0  0  0  0  0  0  0  0  0  0
   -1.7239  -23.1241    0.0000 C   0  0  0  0  0  0  0  0  0  0  0  0
   -1.0127  -23.5423    0.0000 C   0  0  0  0  0  0  0  0  0  0  0  0
   -1.0110  -24.3675    0.0000 C   0  0  0  0  0  0  0  0  0  0  0  0
   -0.3016  -24.7774    0.0000 C   0  0  0  0  0  0  0  0  0  0  0  0
   -0.3029  -23.1296    0.0000 C   0  0  0  0  0  0  0  0  0  0  0  0
    0.4117  -23.5380    0.0000 C   0  0  0  0  0  0  0  0  0  0  0  0
    0.4143  -24.3636    0.0000 C   0  0  0  0  0  0  0  0  0  0  0  0
    1.1265  -24.7727    0.0000 O   0  0  0  0  0  0  0  0  0  0  0  0
    1.8389  -24.3632    0.0000 C   0  0  0  0  0  0  0  0  0  0  0  0
    1.8362  -23.5377    0.0000 C   0  0  0  0  0  0  0  0  0  0  0  0
    1.1213  -23.1216    0.0000 C   0  0  0  0  0  0  0  0  0  0  0  0
    1.1170  -22.2978    0.0000 O   0  0  0  0  0  0  0  0  0  0  0  0
   -3.1558  -23.1294    0.0000 O   0  0  0  0  0  0  0  0  0  0  0  0
   -3.1553  -22.3056    0.0000 C   0  0  0  0  0  0  0  0  0  0  0  0
   -3.8761  -21.8927    0.0000 C   0  0  0  0  0  0  0  0  0  0  0  0
   -3.8755  -21.0689    0.0000 C   0  0  0  0  0  0  0  0  0  0  0  0
   -4.5891  -22.3078    0.0000 C   0  0  0  0  0  0  0  0  0  0  0  0
   -4.5854  -23.1357    0.0000 C   0  0  0  0  0  0  0  0  0  0  0  0
   -2.4423  -21.8905    0.0000 O   0  0  0  0  0  0  0  0  0  0  0  0
    2.5542  -24.7743    0.0000 C   0  0  0  0  0  0  0  0  0  0  0  0
    2.5551  -25.6023    0.0000 O   0  0  0  0  0  0  0  0  0  0  0  0
   -0.3017  -22.3058    0.0000 O   0  0  0  0  0  0  0  0  0  0  0  0
  2  1  1  0
  1  3  1  0
  4  1  1  0
  4  6  1  0
  1  5  1  0
  5  8  1  0
  7  6  1  0
  7  8  2  0
  8  9  1  0
  9 12  2  0
 11 10  2  0
 10  7  1  0
 11 12  1  0
 11 16  1  0
 12 13  1  0
 13 14  1  0
 14 15  2  0
 15 16  1  0
 16 17  2  0
  4 18  1  1
 18 19  1  0
 19 20  1  0
 20 21  1  0
 20 22  2  0
 22 23  1  0
 19 24  2  0
 14 25  1  0
 25 26  1  0
 10 27  1  0
M  END
> <chembl_id>
CHEMBL2059291

> <chembl_pref_name>
LEDEBOURIELLOL

$$$$
CHEMBL1909744
     RDKit          2D

 30 33  0  0  0  0  0  0  0  0999 V2000
   -1.7860   -0.4113    0.0000 C   0  0  0  0  0  0  0  0  0  0  0  0
   -1.7853    0.4137    0.0000 C   0  0  0  0  0  0  0  0  0  0  0  0
   -1.0705    0.8256    0.0000 C   0  0  0  0  0  0  0  0  0  0  0  0
   -0.3563    0.4125    0.0000 C   0  0  0  0  0  0  0  0  0  0  0  0
    0.3585    0.8244    0.0000 C   0  0  0  0  0  0  0  0  0  0  0  0
    1.0726    0.4113    0.0000 C   0  0  0  0  0  0  0  0  0  0  0  0
    1.0719   -0.4137    0.0000 C   0  0  0  0  0  0  0  0  0  0  0  0
    0.3571   -0.8256    0.0000 C   0  0  0  0  0  0  0  0  0  0  0  0
   -0.3571   -0.4125    0.0000 C   0  0  0  0  0  0  0  0  0  0  0  0
   -1.0719   -0.8244    0.0000 O   0  0  0  0  0  0  0  0  0  0  0  0
   -1.0698    1.6506    0.0000 O   0  0  0  0  0  0  0  0  0  0  0  0
    0.3592    1.6494    0.0000 O   0  0  0  0  0  0  0  0  0  0  0  0
    1.7874    0.8232    0.0000 O   0  0  0  0  0  0  0  0  0  0  0  0
    2.5015    0.4100    0.0000 C   0  0  0  0  0  0  0  0  0  0  0  0
    3.2164    0.8219    0.0000 C   0  0  0  0  0  0  0  0  0  0  0  0
    3.2171    1.6469    0.0000 C   0  0  0  0  0  0  0  0  0  0  0  0
    3.9319    2.0588    0.0000 C   0  0  0  0  0  0  0  0  0  0  0  0
    4.6460    1.6457    0.0000 C   0  0  0  0  0  0  0  0  0  0  0  0
    4.6453    0.8207    0.0000 C   0  0  0  0  0  0  0  0  0  0  0  0
    3.9305    0.4088    0.0000 C   0  0  0  0  0  0  0  0  0  0  0  0
   -2.5008   -0.8232    0.0000 O   0  0  0  0  0  0  0  0  0  0  0  0
   -3.2149   -0.4100    0.0000 C   0  0  0  0  0  0  0  0  0  0  0  0
   -3.9298   -0.8219    0.0000 C   0  0  0  0  0  0  0  0  0  0  0  0
   -3.9305   -1.6469    0.0000 C   0  0  0  0  0  0  0  0  0  0  0  0
   -4.6453   -2.0588    0.0000 C   0  0  0  0  0  0  0  0  0  0  0  0
   -5.3594   -1.6457    0.0000 C   0  0  0  0  0  0  0  0  0  0  0  0
   -4.6439   -0.4088    0.0000 C   0  0  0  0  0  0  0  0  0  0  0  0
    5.3594    0.4076    0.0000 Cl  0  0  0  0  0  0  0  0  0  0  0  0
   -5.3587   -0.8207    0.0000 C   0  0  0  0  0  0  0  0  0  0  0  0
   -6.0732   -0.4082    0.0000 Cl  0  0  0  0  0  0  0  0  0  0  0  0
  1  2  2  0
  2  3  1  0
  3  4  1  0
  4  5  1  0
  5  6  2  0
  6  7  1  0
  7  8  2  0
  8  9  1  0
  4  9  2  0
  9 10  1  0
  1 10  1  0
  3 11  2  0
  5 12  1  0
 14 15  1  0
 15 16  1  0
 16 17  2  0
 17 18  1  0
 18 19  2  0
 19 20  1  0
 15 20  2  0
 13 14  1  0
  6 13  1  0
 22 23  1  0
 23 24  1  0
 24 25  2  0
 25 26  1  0
 26 29  2  0
 29 27  1  0
 23 27  2  0
 21 22  1  0
  1 21  1  0
 19 28  1  0
 29 30  1  0
M  END
> <chembl_id>
CHEMBL1909744

> <chembl_pref_name>
None

$$$$
CHEMBL4067145
     RDKit          2D

 33 35  0  0  0  0  0  0  0  0999 V2000
   25.2256  -19.6043    0.0000 O   0  0  0  0  0  0  0  0  0  0  0  0
   24.8212  -18.8986    0.0000 S   0  0  0  0  0  0  0  0  0  0  0  0
   24.4122  -19.6017    0.0000 O   0  0  0  0  0  0  0  0  0  0  0  0
   15.9270  -16.5378    0.0000 O   0  0  0  0  0  0  0  0  0  0  0  0
   16.3397  -17.2477    0.0000 S   0  0  0  0  0  0  0  0  0  0  0  0
   16.7481  -16.5353    0.0000 O   0  0  0  0  0  0  0  0  0  0  0  0
   18.4652  -17.6604    0.0000 C   0  0  0  0  0  0  0  0  0  0  0  0
   19.1729  -17.2518    0.0000 C   0  0  0  0  0  0  0  0  0  0  0  0
   19.8806  -17.6604    0.0000 N   0  0  0  0  0  0  0  0  0  0  0  0
   17.7575  -17.2518    0.0000 C   0  0  0  0  0  0  0  0  0  0  0  0
   17.0498  -17.6604    0.0000 N   0  0  0  0  0  0  0  0  0  0  0  0
   15.6344  -17.6604    0.0000 C   0  0  0  0  0  0  0  0  0  0  0  0
   14.9274  -17.2485    0.0000 C   0  0  0  0  0  0  0  0  0  0  0  0
   14.2201  -17.6564    0.0000 C   0  0  0  0  0  0  0  0  0  0  0  0
   14.2197  -18.4745    0.0000 C   0  0  0  0  0  0  0  0  0  0  0  0
   14.9324  -18.8829    0.0000 C   0  0  0  0  0  0  0  0  0  0  0  0
   15.6367  -18.4727    0.0000 C   0  0  0  0  0  0  0  0  0  0  0  0
   19.8744  -18.4740    0.0000 C   0  0  0  0  0  0  0  0  0  0  0  0
   20.5780  -18.8825    0.0000 C   0  0  0  0  0  0  0  0  0  0  0  0
   21.2882  -18.4774    0.0000 N   0  0  0  0  0  0  0  0  0  0  0  0
   21.2901  -17.6593    0.0000 C   0  0  0  0  0  0  0  0  0  0  0  0
   20.5820  -17.2462    0.0000 C   0  0  0  0  0  0  0  0  0  0  0  0
   21.9943  -18.8887    0.0000 C   0  0  0  0  0  0  0  0  0  0  0  0
   21.9912  -19.7059    0.0000 O   0  0  0  0  0  0  0  0  0  0  0  0
   22.7036  -18.4828    0.0000 C   0  0  0  0  0  0  0  0  0  0  0  0
   23.4097  -18.8940    0.0000 C   0  0  0  0  0  0  0  0  0  0  0  0
   24.1190  -18.4881    0.0000 N   0  0  0  0  0  0  0  0  0  0  0  0
   25.5344  -18.4935    0.0000 C   0  0  0  0  0  0  0  0  0  0  0  0
   26.2375  -18.9052    0.0000 C   0  0  0  0  0  0  0  0  0  0  0  0
   26.9462  -18.5000    0.0000 C   0  0  0  0  0  0  0  0  0  0  0  0
   26.9498  -17.6819    0.0000 C   0  0  0  0  0  0  0  0  0  0  0  0
   26.2386  -17.2708    0.0000 C   0  0  0  0  0  0  0  0  0  0  0  0
   25.5328  -17.6784    0.0000 C   0  0  0  0  0  0  0  0  0  0  0  0
  2  1  2  0
  3  2  2  0
  5  4  2  0
  6  5  2  0
  7  8  1  0
  8  9  1  0
  7 10  1  0
 10 11  1  0
 11  5  1  0
  5 12  1  0
 12 13  2  0
 13 14  1  0
 14 15  2  0
 15 16  1  0
 16 17  2  0
 17 12  1  0
  9 18  1  0
  9 22  1  0
 18 19  1  0
 19 20  1  0
 20 21  1  0
 21 22  1  0
 20 23  1  0
 23 24  2  0
 23 25  1  0
 25 26  1  0
 26 27  1  0
 27  2  1  0
  2 28  1  0
 28 29  2  0
 29 30  1  0
 30 31  2  0
 31 32  1  0
 32 33  2  0
 33 28  1  0
M  END
> <chembl_id>
CHEMBL4067145

> <chembl_pref_name>
None

$$$$
CHEMBL4092924
     RDKit          2D

 15 16  0  0  0  0  0  0  0  0999 V2000
   17.7957   -8.9194    0.0000 N   0  0  0  0  0  0  0  0  0  0  0  0
   18.5122   -8.5061    0.0000 C   0  0  0  0  0  0  0  0  0  0  0  0
   18.5094   -7.6755    0.0000 N   0  0  0  0  0  0  0  0  0  0  0  0
   17.7939   -7.2664    0.0000 C   0  0  0  0  0  0  0  0  0  0  0  0
   17.7915   -6.4414    0.0000 O   0  0  0  0  0  0  0  0  0  0  0  0
   19.2273   -8.9175    0.0000 O   0  0  0  0  0  0  0  0  0  0  0  0
   17.7955   -9.7444    0.0000 C   0  0  0  0  0  0  0  0  0  0  0  0
   17.0809   -8.5066    0.0000 C   0  0  0  0  0  0  0  0  0  0  0  0
   17.0776   -7.6823    0.0000 C   0  0  0  0  0  0  0  0  0  0  0  0
   16.2926   -7.4307    0.0000 N   0  0  0  0  0  0  0  0  0  0  0  0
   15.8107   -8.0995    0.0000 C   0  0  0  0  0  0  0  0  0  0  0  0
   16.2979   -8.7644    0.0000 N   0  0  0  0  0  0  0  0  0  0  0  0
   14.9857   -8.1029    0.0000 S   0  0  0  0  0  0  0  0  0  0  0  0
   16.0345   -6.6471    0.0000 C   0  0  0  0  0  0  0  0  0  0  0  0
   15.2269   -6.4788    0.0000 C   0  0  0  0  0  0  0  0  0  0  0  0
  8  1  1  0
  1  2  1  0
  2  3  1  0
  3  4  1  0
  4  9  1  0
  4  5  2  0
  2  6  2  0
  1  7  1  0
  8  9  2  0
  9 10  1  0
 10 11  1  0
 11 12  2  0
 12  8  1  0
 11 13  1  0
 10 14  1  0
 14 15  1  0
M  END
> <chembl_id>
CHEMBL4092924

> <chembl_pref_name>
None

$$$$
CHEMBL1822711
     RDKit          2D

 72 83  0  0  0  0  0  0  0  0999 V2000
   10.9804   -4.1085    0.0000 C   0  0  0  0  0  0  0  0  0  0  0  0
   10.9547   -4.9298    0.0000 N   0  0  0  0  0  0  0  0  0  0  0  0
   11.7730   -3.8753    0.0000 N   0  0  0  0  0  0  0  0  0  0  0  0
   12.2366   -4.5576    0.0000 C   0  0  0  0  0  0  0  0  0  0  0  0
   11.7298   -5.2059    0.0000 C   0  0  0  0  0  0  0  0  0  0  0  0
   12.0382   -5.9668    0.0000 C   0  0  0  0  0  0  0  0  0  0  0  0
   12.8529   -6.0806    0.0000 C   0  0  0  0  0  0  0  0  0  0  0  0
   13.3587   -5.4273    0.0000 C   0  0  0  0  0  0  0  0  0  0  0  0
   13.0473   -4.6690    0.0000 C   0  0  0  0  0  0  0  0  0  0  0  0
   14.1836   -5.4357    0.0000 C   0  0  0  0  0  0  0  0  0  0  0  0
   14.6606   -6.1052    0.0000 N   0  0  0  0  0  0  0  0  0  0  0  0
   14.6742   -4.7706    0.0000 N   0  0  0  0  0  0  0  0  0  0  0  0
   15.4561   -5.0333    0.0000 C   0  0  0  0  0  0  0  0  0  0  0  0
   15.4462   -5.8562    0.0000 C   0  0  0  0  0  0  0  0  0  0  0  0
   16.1527   -6.2745    0.0000 C   0  0  0  0  0  0  0  0  0  0  0  0
   16.8697   -5.8710    0.0000 C   0  0  0  0  0  0  0  0  0  0  0  0
   16.8758   -5.0449    0.0000 C   0  0  0  0  0  0  0  0  0  0  0  0
   16.1685   -4.6304    0.0000 C   0  0  0  0  0  0  0  0  0  0  0  0
   17.5925   -4.6379    0.0000 N   0  0  0  0  0  0  0  0  0  0  0  0
   18.3038   -5.0575    0.0000 C   0  0  0  0  0  0  0  0  0  0  0  0
   19.0190   -4.6536    0.0000 C   0  0  0  0  0  0  0  0  0  0  0  0
   19.0289   -3.8283    0.0000 N   0  0  0  0  0  0  0  0  0  0  0  0
   18.3176   -3.4086    0.0000 C   0  0  0  0  0  0  0  0  0  0  0  0
   17.5962   -3.8142    0.0000 C   0  0  0  0  0  0  0  0  0  0  0  0
   19.7477   -3.4235    0.0000 C   0  0  0  0  0  0  0  0  0  0  0  0
   -6.4955   -4.8665    0.0000 C   0  0  0  0  0  0  0  0  0  0  0  0
   -6.4943   -5.6697    0.0000 C   0  0  0  0  0  0  0  0  0  0  0  0
   -5.7980   -6.0705    0.0000 C   0  0  0  0  0  0  0  0  0  0  0  0
   -5.7997   -4.4658    0.0000 C   0  0  0  0  0  0  0  0  0  0  0  0
   -5.1042   -4.8631    0.0000 C   0  0  0  0  0  0  0  0  0  0  0  0
   -5.0995   -5.6697    0.0000 C   0  0  0  0  0  0  0  0  0  0  0  0
   -4.3304   -5.9161    0.0000 N   0  0  0  0  0  0  0  0  0  0  0  0
   -3.8607   -5.2591    0.0000 C   0  0  0  0  0  0  0  0  0  0  0  0
   -4.3380   -4.6118    0.0000 N   0  0  0  0  0  0  0  0  0  0  0  0
   -7.2194   -4.4503    0.0000 N   0  0  0  0  0  0  0  0  0  0  0  0
   -7.2128   -3.6164    0.0000 C   0  0  0  0  0  0  0  0  0  0  0  0
   -7.9361   -3.2002    0.0000 C   0  0  0  0  0  0  0  0  0  0  0  0
   -8.6613   -3.6133    0.0000 N   0  0  0  0  0  0  0  0  0  0  0  0
   -8.6595   -4.4473    0.0000 C   0  0  0  0  0  0  0  0  0  0  0  0
   -7.9408   -4.8680    0.0000 C   0  0  0  0  0  0  0  0  0  0  0  0
   -9.3829   -3.1944    0.0000 C   0  0  0  0  0  0  0  0  0  0  0  0
   -3.0296   -5.2514    0.0000 C   0  0  0  0  0  0  0  0  0  0  0  0
   -2.6095   -5.9730    0.0000 C   0  0  0  0  0  0  0  0  0  0  0  0
   -1.7774   -5.9685    0.0000 C   0  0  0  0  0  0  0  0  0  0  0  0
   -2.6203   -4.5328    0.0000 C   0  0  0  0  0  0  0  0  0  0  0  0
   -1.7894   -4.5248    0.0000 C   0  0  0  0  0  0  0  0  0  0  0  0
   -1.3644   -5.2427    0.0000 C   0  0  0  0  0  0  0  0  0  0  0  0
   -0.5473   -5.0629    0.0000 N   0  0  0  0  0  0  0  0  0  0  0  0
   -0.4683   -4.2298    0.0000 C   0  0  0  0  0  0  0  0  0  0  0  0
   -1.2366   -3.8958    0.0000 N   0  0  0  0  0  0  0  0  0  0  0  0
    0.2503   -3.8067    0.0000 C   0  0  0  0  0  0  0  0  0  0  0  0
    0.9738   -4.2206    0.0000 C   0  0  0  0  0  0  0  0  0  0  0  0
    1.6918   -3.7982    0.0000 C   0  0  0  0  0  0  0  0  0  0  0  0
    1.6852   -2.9635    0.0000 C   0  0  0  0  0  0  0  0  0  0  0  0
    0.9544   -2.5530    0.0000 C   0  0  0  0  0  0  0  0  0  0  0  0
    0.2393   -2.9777    0.0000 C   0  0  0  0  0  0  0  0  0  0  0  0
    2.3954   -2.5440    0.0000 O   0  0  0  0  0  0  0  0  0  0  0  0
    3.1140   -2.9494    0.0000 C   0  0  0  0  0  0  0  0  0  0  0  0
    3.8242   -2.5299    0.0000 C   0  0  0  0  0  0  0  0  0  0  0  0
    4.5428   -2.9353    0.0000 C   0  0  0  0  0  0  0  0  0  0  0  0
    5.2530   -2.5157    0.0000 N   0  0  0  0  0  0  0  0  0  0  0  0
    5.9715   -2.9211    0.0000 C   0  0  0  0  0  0  0  0  0  0  0  0
    5.2448   -1.6908    0.0000 C   0  0  0  0  0  0  0  0  0  0  0  0
    6.6818   -2.5016    0.0000 C   0  0  0  0  0  0  0  0  0  0  0  0
    7.4003   -2.9070    0.0000 C   0  0  0  0  0  0  0  0  0  0  0  0
    8.1106   -2.4875    0.0000 O   0  0  0  0  0  0  0  0  0  0  0  0
    8.8291   -2.8929    0.0000 C   0  0  0  0  0  0  0  0  0  0  0  0
    8.8325   -3.7183    0.0000 C   0  0  0  0  0  0  0  0  0  0  0  0
    9.5500   -4.1236    0.0000 C   0  0  0  0  0  0  0  0  0  0  0  0
   10.2614   -3.7040    0.0000 C   0  0  0  0  0  0  0  0  0  0  0  0
   10.2505   -2.8749    0.0000 C   0  0  0  0  0  0  0  0  0  0  0  0
    9.5324   -2.4733    0.0000 C   0  0  0  0  0  0  0  0  0  0  0  0
 33 34  1  0
 34 30  1  0
 35 36  1  0
 15 16  2  0
  7  8  1  0
 16 17  1  0
 17 18  2  0
 18 13  1  0
 35 40  1  0
 36 37  1  0
 37 38  1  0
 38 39  1  0
 39 40  1  0
 26 35  1  0
 19 20  1  0
 38 41  1  0
  8  9  2  0
  9  4  1  0
 42 43  2  0
  1  2  2  0
 43 44  1  0
 44 47  2  0
  8 10  1  0
 46 45  2  0
 45 42  1  0
 33 42  1  0
 46 47  1  0
 10 11  2  0
  4  5  2  0
 19 24  1  0
 20 21  1  0
 21 22  1  0
 47 48  1  0
 48 49  2  0
 49 50  1  0
 50 46  1  0
 22 23  1  0
 49 51  1  0
 23 24  1  0
 51 52  2  0
 17 19  1  0
 52 53  1  0
  2  5  1  0
 53 54  2  0
 22 25  1  0
 54 55  1  0
 11 14  1  0
 55 56  2  0
 56 51  1  0
 13 12  1  0
 54 57  1  0
 26 27  2  0
 57 58  1  0
 12 10  1  0
 58 59  1  0
 27 28  1  0
 59 60  1  0
 28 31  2  0
 60 61  1  0
  5  6  1  0
 61 62  1  0
 30 29  2  0
 61 63  1  0
 29 26  1  0
 62 64  1  0
 30 31  1  0
 64 65  1  0
  4  3  1  0
 65 66  1  0
 13 14  2  0
 66 67  1  0
  6  7  2  0
 67 68  2  0
 14 15  1  0
 68 69  1  0
  3  1  1  0
 69 70  2  0
 31 32  1  0
 70 71  1  0
 32 33  2  0
 71 72  2  0
 72 67  1  0
 70  1  1  0
M  END
> <chembl_id>
CHEMBL1822711

> <chembl_pref_name>
None

$$$$
CHEMBL1822710
     RDKit          2D

 69 78  0  0  0  0  0  0  0  0999 V2000
   21.9161   -7.3231    0.0000 C   0  0  0  0  0  0  0  0  0  0  0  0
   21.9090   -6.4981    0.0000 O   0  0  0  0  0  0  0  0  0  0  0  0
   22.6341   -7.7295    0.0000 N   0  0  0  0  0  0  0  0  0  0  0  0
   23.3450   -7.3109    0.0000 C   0  0  0  0  0  0  0  0  0  0  0  0
   24.0629   -7.7177    0.0000 C   0  0  0  0  0  0  0  0  0  0  0  0
   24.0373   -8.5390    0.0000 N   0  0  0  0  0  0  0  0  0  0  0  0
   24.8556   -7.4845    0.0000 N   0  0  0  0  0  0  0  0  0  0  0  0
   25.3193   -8.1669    0.0000 C   0  0  0  0  0  0  0  0  0  0  0  0
   24.8126   -8.8152    0.0000 C   0  0  0  0  0  0  0  0  0  0  0  0
   25.1208   -9.5762    0.0000 C   0  0  0  0  0  0  0  0  0  0  0  0
   25.9356   -9.6900    0.0000 C   0  0  0  0  0  0  0  0  0  0  0  0
   26.4416   -9.0362    0.0000 C   0  0  0  0  0  0  0  0  0  0  0  0
   26.1302   -8.2783    0.0000 C   0  0  0  0  0  0  0  0  0  0  0  0
   27.2655   -9.0392    0.0000 C   0  0  0  0  0  0  0  0  0  0  0  0
   27.7457   -9.7100    0.0000 N   0  0  0  0  0  0  0  0  0  0  0  0
   27.7551   -8.3753    0.0000 N   0  0  0  0  0  0  0  0  0  0  0  0
   28.5379   -8.6356    0.0000 C   0  0  0  0  0  0  0  0  0  0  0  0
   28.5306   -9.4586    0.0000 C   0  0  0  0  0  0  0  0  0  0  0  0
   29.2385   -9.8746    0.0000 C   0  0  0  0  0  0  0  0  0  0  0  0
   29.9543   -9.4689    0.0000 C   0  0  0  0  0  0  0  0  0  0  0  0
   29.9577   -8.6427    0.0000 C   0  0  0  0  0  0  0  0  0  0  0  0
   29.2491   -8.2304    0.0000 C   0  0  0  0  0  0  0  0  0  0  0  0
   30.6732   -8.2335    0.0000 N   0  0  0  0  0  0  0  0  0  0  0  0
   31.3859   -8.6509    0.0000 C   0  0  0  0  0  0  0  0  0  0  0  0
   32.0998   -8.2446    0.0000 C   0  0  0  0  0  0  0  0  0  0  0  0
   32.1073   -7.4193    0.0000 N   0  0  0  0  0  0  0  0  0  0  0  0
   31.3945   -7.0018    0.0000 C   0  0  0  0  0  0  0  0  0  0  0  0
   30.6743   -7.4097    0.0000 C   0  0  0  0  0  0  0  0  0  0  0  0
   32.8248   -7.0121    0.0000 C   0  0  0  0  0  0  0  0  0  0  0  0
    5.1466   -8.4708    0.0000 C   0  0  0  0  0  0  0  0  0  0  0  0
    5.1455   -9.2741    0.0000 C   0  0  0  0  0  0  0  0  0  0  0  0
    5.8366   -9.6749    0.0000 C   0  0  0  0  0  0  0  0  0  0  0  0
    5.8349   -8.0700    0.0000 C   0  0  0  0  0  0  0  0  0  0  0  0
    6.5305   -8.4672    0.0000 C   0  0  0  0  0  0  0  0  0  0  0  0
    6.5352   -9.2741    0.0000 C   0  0  0  0  0  0  0  0  0  0  0  0
    7.3043   -9.5205    0.0000 N   0  0  0  0  0  0  0  0  0  0  0  0
    7.7742   -8.8634    0.0000 C   0  0  0  0  0  0  0  0  0  0  0  0
    7.2967   -8.2161    0.0000 N   0  0  0  0  0  0  0  0  0  0  0  0
    4.4205   -8.0546    0.0000 N   0  0  0  0  0  0  0  0  0  0  0  0
    4.4223   -7.2206    0.0000 C   0  0  0  0  0  0  0  0  0  0  0  0
    3.7038   -6.8043    0.0000 C   0  0  0  0  0  0  0  0  0  0  0  0
    2.9789   -7.2175    0.0000 N   0  0  0  0  0  0  0  0  0  0  0  0
    2.9772   -8.0515    0.0000 C   0  0  0  0  0  0  0  0  0  0  0  0
    3.7002   -8.4723    0.0000 C   0  0  0  0  0  0  0  0  0  0  0  0
    2.2661   -6.7984    0.0000 C   0  0  0  0  0  0  0  0  0  0  0  0
    8.6052   -8.8557    0.0000 C   0  0  0  0  0  0  0  0  0  0  0  0
    9.0254   -9.5774    0.0000 C   0  0  0  0  0  0  0  0  0  0  0  0
    9.8576   -9.5729    0.0000 C   0  0  0  0  0  0  0  0  0  0  0  0
    9.0147   -8.1371    0.0000 C   0  0  0  0  0  0  0  0  0  0  0  0
    9.8456   -8.1290    0.0000 C   0  0  0  0  0  0  0  0  0  0  0  0
   10.2706   -8.8470    0.0000 C   0  0  0  0  0  0  0  0  0  0  0  0
   11.0878   -8.6672    0.0000 N   0  0  0  0  0  0  0  0  0  0  0  0
   11.1668   -7.8340    0.0000 C   0  0  0  0  0  0  0  0  0  0  0  0
   10.3985   -7.5000    0.0000 N   0  0  0  0  0  0  0  0  0  0  0  0
   11.8855   -7.4109    0.0000 C   0  0  0  0  0  0  0  0  0  0  0  0
   12.6118   -7.8207    0.0000 N   0  0  0  0  0  0  0  0  0  0  0  0
   13.3264   -7.3975    0.0000 C   0  0  0  0  0  0  0  0  0  0  0  0
   13.3187   -6.5646    0.0000 O   0  0  0  0  0  0  0  0  0  0  0  0
   14.0527   -7.8074    0.0000 C   0  0  0  0  0  0  0  0  0  0  0  0
   14.7714   -7.3843    0.0000 C   0  0  0  0  0  0  0  0  0  0  0  0
   15.4894   -7.7907    0.0000 C   0  0  0  0  0  0  0  0  0  0  0  0
   16.2003   -7.3721    0.0000 C   0  0  0  0  0  0  0  0  0  0  0  0
   16.9183   -7.7784    0.0000 C   0  0  0  0  0  0  0  0  0  0  0  0
   17.6292   -7.3598    0.0000 C   0  0  0  0  0  0  0  0  0  0  0  0
   18.3473   -7.7661    0.0000 C   0  0  0  0  0  0  0  0  0  0  0  0
   19.0582   -7.3475    0.0000 C   0  0  0  0  0  0  0  0  0  0  0  0
   19.7762   -7.7539    0.0000 C   0  0  0  0  0  0  0  0  0  0  0  0
   20.4872   -7.3353    0.0000 C   0  0  0  0  0  0  0  0  0  0  0  0
   21.2052   -7.7417    0.0000 C   0  0  0  0  0  0  0  0  0  0  0  0
 15 18  1  0
 34 33  2  0
 33 30  1  0
 34 35  1  0
 17 16  1  0
 16 14  1  0
 12 14  1  0
  3  4  1  0
 35 36  1  0
 36 37  2  0
 37 38  1  0
 38 34  1  0
 39 40  1  0
 17 18  2  0
  8  9  2  0
 18 19  1  0
  4  5  1  0
 19 20  2  0
  9 10  1  0
 39 44  1  0
 40 41  1  0
 41 42  1  0
 42 43  1  0
 43 44  1  0
 30 39  1  0
 20 21  1  0
 42 45  1  0
  5  6  2  0
 21 22  2  0
 46 47  2  0
 22 17  1  0
 47 48  1  0
 48 51  2  0
 23 24  1  0
 50 49  2  0
 49 46  1  0
 37 46  1  0
 50 51  1  0
 10 11  2  0
  1  3  1  0
 11 12  1  0
  1  2  2  0
 12 13  2  0
 51 52  1  0
 52 53  2  0
 53 54  1  0
 54 50  1  0
 13  8  1  0
 53 55  1  0
 23 28  1  0
 55 56  1  0
 24 25  1  0
 56 57  1  0
 25 26  1  0
 57 58  2  0
 26 27  1  0
 57 59  1  0
 27 28  1  0
 59 60  1  0
 21 23  1  0
 60 61  1  0
 14 15  2  0
 61 62  1  0
 26 29  1  0
 62 63  1  0
  6  9  1  0
 63 64  1  0
  8  7  1  0
 64 65  1  0
 30 31  2  0
 65 66  1  0
  7  5  1  0
 66 67  1  0
 31 32  1  0
 67 68  1  0
 32 35  2  0
 68 69  1  0
 69  1  1  0
M  END
> <chembl_id>
CHEMBL1822710

> <chembl_pref_name>
None

$$$$
CHEMBL1813570
     RDKit          2D

 61 65  0  0  0  0  0  0  0  0999 V2000
    4.6843   -2.0488    0.0000 O   0  0  0  0  0  0  0  0  0  0  0  0
    3.8883   -1.8363    0.0000 S   0  0  0  0  0  0  0  0  0  0  0  0
    4.1022   -2.6319    0.0000 O   0  0  0  0  0  0  0  0  0  0  0  0
    1.0503    1.4561    0.0000 O   0  0  0  0  0  0  0  0  0  0  0  0
    0.3357    1.8750    0.0000 C   0  0  0  0  0  0  0  0  0  0  0  0
   -1.0825    2.7058    0.0000 N   0  0  0  0  0  0  0  0  0  0  0  0
   -1.0836    1.8771    0.0000 C   0  0  0  0  0  0  0  0  0  0  0  0
   -0.3739    1.4670    0.0000 C   0  0  0  0  0  0  0  0  0  0  0  0
   -0.3690    3.1186    0.0000 C   0  0  0  0  0  0  0  0  0  0  0  0
    0.3414    2.7033    0.0000 C   0  0  0  0  0  0  0  0  0  0  0  0
    1.0512    3.1082    0.0000 C   0  0  0  0  0  0  0  0  0  0  0  0
    1.0574    3.9304    0.0000 C   0  0  0  0  0  0  0  0  0  0  0  0
    0.3402    4.3414    0.0000 C   0  0  0  0  0  0  0  0  0  0  0  0
   -0.3670    3.9351    0.0000 C   0  0  0  0  0  0  0  0  0  0  0  0
    0.3387    5.1665    0.0000 O   0  0  0  0  0  0  0  0  0  0  0  0
    1.0561    5.5804    0.0000 C   0  0  0  0  0  0  0  0  0  0  0  0
   -1.7996    1.4645    0.0000 C   0  0  0  0  0  0  0  0  0  0  0  0
   -2.5147    1.8806    0.0000 C   0  0  0  0  0  0  0  0  0  0  0  0
   -3.2299    1.4649    0.0000 C   0  0  0  0  0  0  0  0  0  0  0  0
   -3.2306    0.6426    0.0000 C   0  0  0  0  0  0  0  0  0  0  0  0
   -2.5112    0.2303    0.0000 C   0  0  0  0  0  0  0  0  0  0  0  0
   -1.7961    0.6413    0.0000 C   0  0  0  0  0  0  0  0  0  0  0  0
    1.0483    0.6311    0.0000 C   0  0  0  0  0  0  0  0  0  0  0  0
    0.3262    0.2270    0.0000 C   0  0  0  0  0  0  0  0  0  0  0  0
    0.3237   -0.5969    0.0000 C   0  0  0  0  0  0  0  0  0  0  0  0
    1.0375   -1.0119    0.0000 C   0  0  0  0  0  0  0  0  0  0  0  0
    1.7518   -0.5980    0.0000 C   0  0  0  0  0  0  0  0  0  0  0  0
    1.7531    0.2239    0.0000 C   0  0  0  0  0  0  0  0  0  0  0  0
    1.0330   -1.8371    0.0000 C   0  0  0  0  0  0  0  0  0  0  0  0
   -0.3984   -1.8361    0.0000 C   0  0  0  0  0  0  0  0  0  0  0  0
   -1.1125   -2.2448    0.0000 C   0  0  0  0  0  0  0  0  0  0  0  0
   -0.3939   -1.0110    0.0000 O   0  0  0  0  0  0  0  0  0  0  0  0
   -1.1170   -3.0699    0.0000 C   0  0  0  0  0  0  0  0  0  0  0  0
   -1.8310   -3.4828    0.0000 C   0  0  0  0  0  0  0  0  0  0  0  0
   -0.4032   -3.4863    0.0000 C   0  0  0  0  0  0  0  0  0  0  0  0
   -1.1235   -3.8966    0.0000 C   0  0  0  0  0  0  0  0  0  0  0  0
    1.7426   -2.2535    0.0000 C   0  0  0  0  0  0  0  0  0  0  0  0
    2.4607   -1.8407    0.0000 O   0  0  0  0  0  0  0  0  0  0  0  0
    2.4560   -3.4993    0.0000 C   0  0  0  0  0  0  0  0  0  0  0  0
    2.4515   -4.3244    0.0000 C   0  0  0  0  0  0  0  0  0  0  0  0
    3.1743   -3.0823    0.0000 C   0  0  0  0  0  0  0  0  0  0  0  0
    3.1695   -4.7409    0.0000 C   0  0  0  0  0  0  0  0  0  0  0  0
    3.1650   -5.5661    0.0000 C   0  0  0  0  0  0  0  0  0  0  0  0
    3.8967   -3.5041    0.0000 O   0  0  0  0  0  0  0  0  0  0  0  0
    3.8872   -0.8577    0.0000 C   0  0  0  0  0  0  0  0  0  0  0  0
    3.2604   -0.3252    0.0000 C   0  0  0  0  0  0  0  0  0  0  0  0
    3.7948    0.3916    0.0000 C   0  0  0  0  0  0  0  0  0  0  0  0
    2.1722    0.8650    0.0000 C   0  0  0  0  0  0  0  0  0  0  0  0
    2.9172    0.8975    0.0000 C   0  0  0  0  0  0  0  0  0  0  0  0
    3.4798    1.3310    0.0000 C   0  0  0  0  0  0  0  0  0  0  0  0
   -2.5400   -2.2432    0.0000 C   0  0  0  0  0  0  0  0  0  0  0  0
   -2.5389   -3.0657    0.0000 O   0  0  0  0  0  0  0  0  0  0  0  0
   -3.2593   -1.8287    0.0000 O   0  0  0  0  0  0  0  0  0  0  0  0
   -3.9791   -2.2399    0.0000 C   0  0  0  0  0  0  0  0  0  0  0  0
   -4.6928   -1.8261    0.0000 C   0  0  0  0  0  0  0  0  0  0  0  0
   -3.9806   -3.0603    0.0000 C   0  0  0  0  0  0  0  0  0  0  0  0
   -4.6887   -2.6591    0.0000 C   0  0  0  0  0  0  0  0  0  0  0  0
    3.1788   -2.2573    0.0000 N   0  0  0  0  0  0  0  0  0  0  0  0
   -1.8258   -1.8303    0.0000 N   0  0  0  0  0  0  0  0  0  0  0  0
    1.7464   -3.0785    0.0000 N   0  0  0  0  0  0  0  0  0  0  0  0
    0.3170   -2.2470    0.0000 N   0  0  0  0  0  0  0  0  0  0  0  0
  2  1  2  0
  3  2  2  0
  4  5  1  0
  5 10  2  0
  9  6  2  0
  6  7  1  0
  7  8  2  0
  8  5  1  0
  9 10  1  0
 10 11  1  0
 11 12  2  0
 12 13  1  0
 13 14  2  0
 14  9  1  0
 13 15  1  0
 15 16  1  0
  7 17  1  0
 17 18  2  0
 18 19  1  0
 19 20  2  0
 20 21  1  0
 21 22  2  0
 22 17  1  0
  4 23  1  0
 23 24  2  0
 24 25  1  0
 25 26  2  0
 26 27  1  0
 27 28  2  0
 28 23  1  0
 29 26  1  0
 30 31  1  0
 30 32  2  0
 31 33  1  6
 33 34  1  0
 33 35  1  0
 33 36  1  0
 29 37  1  0
 37 38  2  0
 39 40  1  6
 39 41  1  0
 40 42  1  0
 42 43  1  0
 41 44  2  0
  2 45  1  0
 45 46  1  0
 46 47  1  0
 28 48  1  0
 48 49  2  0
 49 50  1  0
 50 47  1  0
 51 52  2  0
 51 53  1  0
 53 54  1  0
 54 55  1  0
 54 56  1  0
 54 57  1  0
 41 58  1  0
  2 58  1  0
 31 59  1  0
 51 59  1  0
 37 60  1  0
 39 60  1  0
 29 61  1  1
 30 61  1  0
M  END
> <chembl_id>
CHEMBL1813570

> <chembl_pref_name>
None

$$$$
CHEMBL4072741
     RDKit          2D

 40 42  0  0  0  0  0  0  0  0999 V2000
    3.8837  -17.0289    0.0000 O   0  0  0  0  0  0  0  0  0  0  0  0
    3.4793  -16.3232    0.0000 S   0  0  0  0  0  0  0  0  0  0  0  0
    3.0703  -17.0263    0.0000 O   0  0  0  0  0  0  0  0  0  0  0  0
   11.5562  -13.9831    0.0000 O   0  0  0  0  0  0  0  0  0  0  0  0
   11.9690  -14.6929    0.0000 S   0  0  0  0  0  0  0  0  0  0  0  0
   12.3774  -13.9806    0.0000 O   0  0  0  0  0  0  0  0  0  0  0  0
    7.0204  -15.0933    0.0000 C   0  0  0  0  0  0  0  0  0  0  0  0
    7.0204  -15.9105    0.0000 N   0  0  0  0  0  0  0  0  0  0  0  0
    7.7257  -16.3149    0.0000 C   0  0  0  0  0  0  0  0  0  0  0  0
    8.4310  -15.9105    0.0000 C   0  0  0  0  0  0  0  0  0  0  0  0
    8.4310  -15.0933    0.0000 N   0  0  0  0  0  0  0  0  0  0  0  0
    7.7257  -14.6806    0.0000 C   0  0  0  0  0  0  0  0  0  0  0  0
    9.1399  -14.6868    0.0000 C   0  0  0  0  0  0  0  0  0  0  0  0
    9.8464  -15.0974    0.0000 C   0  0  0  0  0  0  0  0  0  0  0  0
   10.5553  -14.6909    0.0000 C   0  0  0  0  0  0  0  0  0  0  0  0
   11.2618  -15.1016    0.0000 N   0  0  0  0  0  0  0  0  0  0  0  0
   12.6772  -15.1057    0.0000 C   0  0  0  0  0  0  0  0  0  0  0  0
   12.6696  -15.9239    0.0000 C   0  0  0  0  0  0  0  0  0  0  0  0
   13.3752  -16.3345    0.0000 C   0  0  0  0  0  0  0  0  0  0  0  0
   14.0851  -15.9279    0.0000 C   0  0  0  0  0  0  0  0  0  0  0  0
   14.0849  -15.1065    0.0000 C   0  0  0  0  0  0  0  0  0  0  0  0
   13.3786  -14.6996    0.0000 C   0  0  0  0  0  0  0  0  0  0  0  0
    6.3133  -16.3201    0.0000 C   0  0  0  0  0  0  0  0  0  0  0  0
    5.6050  -15.9125    0.0000 C   0  0  0  0  0  0  0  0  0  0  0  0
    4.8979  -16.3221    0.0000 C   0  0  0  0  0  0  0  0  0  0  0  0
    4.1896  -15.9146    0.0000 N   0  0  0  0  0  0  0  0  0  0  0  0
    2.7742  -15.9166    0.0000 C   0  0  0  0  0  0  0  0  0  0  0  0
    2.7723  -15.1004    0.0000 C   0  0  0  0  0  0  0  0  0  0  0  0
    2.0648  -14.6929    0.0000 C   0  0  0  0  0  0  0  0  0  0  0  0
    1.3590  -15.1026    0.0000 C   0  0  0  0  0  0  0  0  0  0  0  0
    1.3634  -15.9240    0.0000 C   0  0  0  0  0  0  0  0  0  0  0  0
    2.0686  -16.3278    0.0000 C   0  0  0  0  0  0  0  0  0  0  0  0
   14.7922  -16.3376    0.0000 C   0  0  0  0  0  0  0  0  0  0  0  0
   14.7909  -17.1548    0.0000 F   0  0  0  0  0  0  0  0  0  0  0  0
   15.5005  -15.9302    0.0000 F   0  0  0  0  0  0  0  0  0  0  0  0
   15.4977  -16.7442    0.0000 F   0  0  0  0  0  0  0  0  0  0  0  0
    0.6497  -14.6967    0.0000 C   0  0  0  0  0  0  0  0  0  0  0  0
    0.6466  -13.8795    0.0000 F   0  0  0  0  0  0  0  0  0  0  0  0
   -0.0564  -15.1080    0.0000 F   0  0  0  0  0  0  0  0  0  0  0  0
    0.0000  -14.2843    0.0000 F   0  0  0  0  0  0  0  0  0  0  0  0
  2  1  2  0
  3  2  2  0
  5  4  2  0
  6  5  2  0
  7  8  1  0
  7 12  1  0
  8  9  1  0
  9 10  1  0
 10 11  1  0
 11 12  1  0
 11 13  1  0
 13 14  1  0
 14 15  1  0
 15 16  1  0
 16  5  1  0
  5 17  1  0
 17 18  2  0
 18 19  1  0
 19 20  2  0
 20 21  1  0
 21 22  2  0
 22 17  1  0
  8 23  1  0
 23 24  1  0
 24 25  1  0
 25 26  1  0
 26  2  1  0
  2 27  1  0
 27 28  2  0
 28 29  1  0
 29 30  2  0
 30 31  1  0
 31 32  2  0
 32 27  1  0
 20 33  1  0
 33 34  1  0
 33 35  1  0
 33 36  1  0
 30 37  1  0
 37 38  1  0
 37 39  1  0
 37 40  1  0
M  END
> <chembl_id>
CHEMBL4072741

> <chembl_pref_name>
None

$$$$
CHEMBL3114570
     RDKit          2D

 39 41  0  0  0  0  0  0  0  0999 V2000
   15.4930  -15.8557    0.0000 N   0  0  0  0  0  0  0  0  0  0  0  0
   15.4506  -14.5329    0.0000 N   0  0  0  0  0  0  0  0  0  0  0  0
   14.9943  -15.2098    0.0000 C   0  0  0  0  0  0  0  0  0  0  0  0
   17.6699  -14.3912    0.0000 N   0  0  0  0  0  0  0  0  0  0  0  0
   18.0412  -15.1180    0.0000 C   0  0  0  0  0  0  0  0  0  0  0  0
   17.7084  -15.8634    0.0000 N   0  0  0  0  0  0  0  0  0  0  0  0
   16.9209  -16.0696    0.0000 C   0  0  0  0  0  0  0  0  0  0  0  0
   16.8620  -14.2315    0.0000 C   0  0  0  0  0  0  0  0  0  0  0  0
   16.2620  -15.5781    0.0000 C   0  0  0  0  0  0  0  0  0  0  0  0
   16.2377  -14.7617    0.0000 C   0  0  0  0  0  0  0  0  0  0  0  0
   16.6562  -13.4407    0.0000 O   0  0  0  0  0  0  0  0  0  0  0  0
   18.8581  -15.0966    0.0000 N   0  0  0  0  0  0  0  0  0  0  0  0
   16.7647  -16.8717    0.0000 O   0  0  0  0  0  0  0  0  0  0  0  0
   19.2851  -15.7934    0.0000 C   0  0  0  0  0  0  0  0  0  0  0  0
   20.1020  -15.7720    0.0000 C   0  0  0  0  0  0  0  0  0  0  0  0
   20.5289  -16.4688    0.0000 C   0  0  0  0  0  0  0  0  0  0  0  0
   21.3459  -16.4474    0.0000 C   0  0  0  0  0  0  0  0  0  0  0  0
   21.7728  -17.1442    0.0000 C   0  0  0  0  0  0  0  0  0  0  0  0
   22.5897  -17.1228    0.0000 C   0  0  0  0  0  0  0  0  0  0  0  0
   23.0167  -17.8196    0.0000 C   0  0  0  0  0  0  0  0  0  0  0  0
   23.8336  -17.7982    0.0000 C   0  0  0  0  0  0  0  0  0  0  0  0
   15.1908  -16.6154    0.0000 C   0  0  0  0  0  0  0  0  0  0  0  0
   14.4010  -16.8161    0.0000 O   0  0  0  0  0  0  0  0  0  0  0  0
   14.3484  -17.6316    0.0000 C   0  0  0  0  0  0  0  0  0  0  0  0
   15.1078  -17.9336    0.0000 C   0  0  0  0  0  0  0  0  0  0  0  0
   15.6296  -17.3047    0.0000 C   0  0  0  0  0  0  0  0  0  0  0  0
   13.6578  -18.0684    0.0000 C   0  0  0  0  0  0  0  0  0  0  0  0
   12.9342  -17.6887    0.0000 O   0  0  0  0  0  0  0  0  0  0  0  0
   15.3099  -18.7254    0.0000 O   0  0  0  0  0  0  0  0  0  0  0  0
   24.2606  -18.4950    0.0000 C   0  0  0  0  0  0  0  0  0  0  0  0
   25.0775  -18.4736    0.0000 C   0  0  0  0  0  0  0  0  0  0  0  0
   25.5045  -19.1704    0.0000 C   0  0  0  0  0  0  0  0  0  0  0  0
   26.3214  -19.1490    0.0000 C   0  0  0  0  0  0  0  0  0  0  0  0
   26.7483  -19.8458    0.0000 C   0  0  0  0  0  0  0  0  0  0  0  0
   27.5652  -19.8244    0.0000 C   0  0  0  0  0  0  0  0  0  0  0  0
   27.9922  -20.5212    0.0000 C   0  0  0  0  0  0  0  0  0  0  0  0
   28.8091  -20.4998    0.0000 C   0  0  0  0  0  0  0  0  0  0  0  0
   29.2361  -21.1966    0.0000 C   0  0  0  0  0  0  0  0  0  0  0  0
   30.0530  -21.1753    0.0000 C   0  0  0  0  0  0  0  0  0  0  0  0
  1  9  1  0
 10  2  1  0
  2  3  2  0
  3  1  1  0
  4  5  2  0
  5  6  1  0
  6  7  1  0
  4  8  1  0
  7  9  1  0
  8 10  1  0
  9 10  2  0
  8 11  2  0
  5 12  1  0
  7 13  2  0
 12 14  1  0
 14 15  1  0
 15 16  1  0
 16 17  1  0
 17 18  1  0
 18 19  1  0
 19 20  1  0
 20 21  1  0
 22  1  1  6
 22 23  1  0
 23 24  1  0
 24 25  1  0
 25 26  1  0
 26 22  1  0
 24 27  1  1
 27 28  1  0
 25 29  1  6
 21 30  1  0
 30 31  1  0
 31 32  1  0
 32 33  1  0
 33 34  1  0
 34 35  1  0
 35 36  1  0
 36 37  1  0
 37 38  1  0
 38 39  1  0
M  END
> <chembl_id>
CHEMBL3114570

> <chembl_pref_name>
None

$$$$
CHEMBL1418430
     RDKit          2D

 28 30  0  0  0  0  0  0  0  0999 V2000
   -1.0619    0.8272    0.0000 S   0  0  0  0  0  0  0  0  0  0  0  0
    1.7960    0.8272    0.0000 O   0  0  0  0  0  0  0  0  0  0  0  0
    0.3671   -1.6478    0.0000 O   0  0  0  0  0  0  0  0  0  0  0  0
    1.7960   -3.2978    0.0000 O   0  0  0  0  0  0  0  0  0  0  0  0
    0.3671    0.8272    0.0000 N   0  0  0  0  0  0  0  0  0  0  0  0
   -0.3474   -0.4103    0.0000 N   0  0  0  0  0  0  0  0  0  0  0  0
    1.7960   -1.6478    0.0000 N   0  0  0  0  0  0  0  0  0  0  0  0
    2.5105   -2.0603    0.0000 N   0  0  0  0  0  0  0  0  0  0  0  0
    1.0816    0.4147    0.0000 C   0  0  0  0  0  0  0  0  0  0  0  0
    1.0816   -0.4103    0.0000 C   0  0  0  0  0  0  0  0  0  0  0  0
    0.3671   -0.8228    0.0000 C   0  0  0  0  0  0  0  0  0  0  0  0
   -0.3474    0.4147    0.0000 C   0  0  0  0  0  0  0  0  0  0  0  0
    0.3671    1.6522    0.0000 C   0  0  0  0  0  0  0  0  0  0  0  0
    1.7960   -0.8228    0.0000 C   0  0  0  0  0  0  0  0  0  0  0  0
   -0.3474    2.0647    0.0000 C   0  0  0  0  0  0  0  0  0  0  0  0
   -0.3474    2.8897    0.0000 C   0  0  0  0  0  0  0  0  0  0  0  0
    2.5105   -2.8853    0.0000 C   0  0  0  0  0  0  0  0  0  0  0  0
    3.2250   -3.2978    0.0000 C   0  0  0  0  0  0  0  0  0  0  0  0
   -1.0619    3.3022    0.0000 C   0  0  0  0  0  0  0  0  0  0  0  0
    0.3671    3.3022    0.0000 C   0  0  0  0  0  0  0  0  0  0  0  0
    3.9394   -2.8853    0.0000 C   0  0  0  0  0  0  0  0  0  0  0  0
    3.2250   -4.1228    0.0000 C   0  0  0  0  0  0  0  0  0  0  0  0
    4.6539   -3.2978    0.0000 C   0  0  0  0  0  0  0  0  0  0  0  0
    3.9394   -4.5353    0.0000 C   0  0  0  0  0  0  0  0  0  0  0  0
   -1.0619    4.1272    0.0000 C   0  0  0  0  0  0  0  0  0  0  0  0
    0.3671    4.1272    0.0000 C   0  0  0  0  0  0  0  0  0  0  0  0
    4.6539   -4.1228    0.0000 C   0  0  0  0  0  0  0  0  0  0  0  0
   -0.3474    4.5397    0.0000 C   0  0  0  0  0  0  0  0  0  0  0  0
  1 12  2  0
  2  9  2  0
  3 11  2  0
  4 17  2  0
  5  9  1  0
  5 12  1  0
  5 13  1  0
  6 11  1  0
  6 12  1  0
  7  8  1  0
  7 14  1  0
  8 17  1  0
  9 10  1  0
 10 11  1  0
 10 14  2  0
 13 15  1  0
 15 16  1  0
 16 19  2  0
 16 20  1  0
 17 18  1  0
 18 21  2  0
 18 22  1  0
 19 25  1  0
 20 26  1  0
 21 23  1  0
 22 24  2  0
 23 27  2  0
 24 27  1  0
 25 28  1  0
 26 28  1  0
M  END
> <chembl_id>
CHEMBL1418430

> <chembl_pref_name>
None

$$$$
CHEMBL1374123
     RDKit          2D

 35 39  0  0  0  0  0  0  0  0999 V2000
    1.5709    2.4014    0.0000 O   0  0  0  0  0  0  0  0  0  0  0  0
   -0.1848    2.7746    0.0000 O   0  0  0  0  0  0  0  0  0  0  0  0
   -1.4178    0.4665    0.0000 O   0  0  0  0  0  0  0  0  0  0  0  0
   -1.3122    2.6722    0.0000 O   0  0  0  0  0  0  0  0  0  0  0  0
    2.6517   -0.3756    0.0000 O   0  0  0  0  0  0  0  0  0  0  0  0
   -0.3958   -2.5346    0.0000 O   0  0  0  0  0  0  0  0  0  0  0  0
    1.0440    1.0289    0.0000 N   0  0  0  0  0  0  0  0  0  0  0  0
    1.8447   -0.2041    0.0000 N   0  0  0  0  0  0  0  0  0  0  0  0
    0.2903    0.6933    0.0000 C   0  0  0  0  0  0  0  0  0  0  0  0
   -0.2617    1.3064    0.0000 C   0  0  0  0  0  0  0  0  0  0  0  0
    0.9578    1.8493    0.0000 C   0  0  0  0  0  0  0  0  0  0  0  0
    0.1508    2.0209    0.0000 C   0  0  0  0  0  0  0  0  0  0  0  0
    0.1188   -0.1137    0.0000 C   0  0  0  0  0  0  0  0  0  0  0  0
    1.7585    0.6164    0.0000 C   0  0  0  0  0  0  0  0  0  0  0  0
   -1.0822    1.2202    0.0000 C   0  0  0  0  0  0  0  0  0  0  0  0
   -1.5671    1.8876    0.0000 C   0  0  0  0  0  0  0  0  0  0  0  0
    2.5121    0.9519    0.0000 C   0  0  0  0  0  0  0  0  0  0  0  0
    0.7319   -0.6657    0.0000 C   0  0  0  0  0  0  0  0  0  0  0  0
   -0.6658   -0.3686    0.0000 C   0  0  0  0  0  0  0  0  0  0  0  0
    3.0642    0.3388    0.0000 C   0  0  0  0  0  0  0  0  0  0  0  0
   -2.3921    1.8876    0.0000 C   0  0  0  0  0  0  0  0  0  0  0  0
    0.5604   -1.4727    0.0000 C   0  0  0  0  0  0  0  0  0  0  0  0
   -0.8374   -1.1756    0.0000 C   0  0  0  0  0  0  0  0  0  0  0  0
   -0.2243   -1.7276    0.0000 C   0  0  0  0  0  0  0  0  0  0  0  0
   -1.9796    3.1572    0.0000 C   0  0  0  0  0  0  0  0  0  0  0  0
   -2.6471    2.6722    0.0000 C   0  0  0  0  0  0  0  0  0  0  0  0
    3.8847    0.4251    0.0000 C   0  0  0  0  0  0  0  0  0  0  0  0
   -1.9796    3.9822    0.0000 C   0  0  0  0  0  0  0  0  0  0  0  0
    0.2173   -3.0866    0.0000 C   0  0  0  0  0  0  0  0  0  0  0  0
    0.0458   -3.8936    0.0000 C   0  0  0  0  0  0  0  0  0  0  0  0
    0.6589   -4.4456    0.0000 C   0  0  0  0  0  0  0  0  0  0  0  0
   -0.7388   -4.1485    0.0000 C   0  0  0  0  0  0  0  0  0  0  0  0
    0.4873   -5.2526    0.0000 C   0  0  0  0  0  0  0  0  0  0  0  0
   -0.9104   -4.9555    0.0000 C   0  0  0  0  0  0  0  0  0  0  0  0
   -0.2973   -5.5075    0.0000 C   0  0  0  0  0  0  0  0  0  0  0  0
  1 11  2  0
  2 12  1  0
  3 15  2  0
  4 16  1  0
  4 25  1  0
  5  8  1  0
  5 20  1  0
  6 24  1  0
  6 29  1  0
  7  9  1  0
  7 11  1  0
  7 14  1  0
  8 14  2  0
  9 10  1  0
  9 13  1  0
 10 12  2  0
 10 15  1  0
 11 12  1  0
 13 18  2  0
 13 19  1  0
 14 17  1  0
 15 16  1  0
 16 21  2  0
 17 20  2  0
 18 22  1  0
 19 23  2  0
 20 27  1  0
 21 26  1  0
 22 24  2  0
 23 24  1  0
 25 26  2  0
 25 28  1  0
 29 30  1  0
 30 31  2  0
 30 32  1  0
 31 33  1  0
 32 34  2  0
 33 35  2  0
 34 35  1  0
M  END
> <chembl_id>
CHEMBL1374123

> <chembl_pref_name>
None

$$$$
CHEMBL3120360
     RDKit          2D

 22 24  0  0  0  0  0  0  0  0999 V2000
    5.0833  -10.0952    0.0000 C   0  0  0  0  0  0  0  0  0  0  0  0
    5.0822  -10.9106    0.0000 C   0  0  0  0  0  0  0  0  0  0  0  0
    5.7944  -11.3195    0.0000 C   0  0  0  0  0  0  0  0  0  0  0  0
    5.7926   -9.6863    0.0000 C   0  0  0  0  0  0  0  0  0  0  0  0
    6.4971  -10.0916    0.0000 C   0  0  0  0  0  0  0  0  0  0  0  0
    6.4973  -10.9106    0.0000 C   0  0  0  0  0  0  0  0  0  0  0  0
    7.2762  -11.1607    0.0000 N   0  0  0  0  0  0  0  0  0  0  0  0
    7.7516  -10.5069    0.0000 C   0  0  0  0  0  0  0  0  0  0  0  0
    7.2757   -9.8411    0.0000 C   0  0  0  0  0  0  0  0  0  0  0  0
    7.5280   -9.0597    0.0000 C   0  0  0  0  0  0  0  0  0  0  0  0
    8.3232   -8.8896    0.0000 C   0  0  0  0  0  0  0  0  0  0  0  0
    8.5754   -8.1123    0.0000 O   0  0  0  0  0  0  0  0  0  0  0  0
    8.8702   -9.4967    0.0000 O   0  0  0  0  0  0  0  0  0  0  0  0
    7.5248  -11.9419    0.0000 C   0  0  0  0  0  0  0  0  0  0  0  0
    8.3236  -12.1160    0.0000 C   0  0  0  0  0  0  0  0  0  0  0  0
    8.5744  -12.8901    0.0000 C   0  0  0  0  0  0  0  0  0  0  0  0
    9.3693  -13.0633    0.0000 C   0  0  0  0  0  0  0  0  0  0  0  0
    9.9191  -12.4629    0.0000 C   0  0  0  0  0  0  0  0  0  0  0  0
    9.6666  -11.6817    0.0000 C   0  0  0  0  0  0  0  0  0  0  0  0
    8.8722  -11.5071    0.0000 C   0  0  0  0  0  0  0  0  0  0  0  0
   10.2159  -11.0767    0.0000 C   0  0  0  0  0  0  0  0  0  0  0  0
   10.7683  -10.4683    0.0000 C   0  0  0  0  0  0  0  0  0  0  0  0
  1  2  2  0
  2  3  1  0
  3  6  2  0
  5  4  2  0
  4  1  1  0
  5  6  1  0
  6  7  1  0
  7  8  1  0
  8  9  2  0
  9  5  1  0
  9 10  1  0
 10 11  1  0
 11 12  2  0
 11 13  1  0
  7 14  1  0
 14 15  1  0
 15 16  2  0
 16 17  1  0
 17 18  2  0
 18 19  1  0
 19 20  2  0
 20 15  1  0
 19 21  1  0
 21 22  3  0
M  END
> <chembl_id>
CHEMBL3120360

> <chembl_pref_name>
None

$$$$
CHEMBL4101377
     RDKit          2D

 31 34  0  0  0  0  0  0  0  0999 V2000
   27.5812  -14.2999    0.0000 C   0  0  0  0  0  0  0  0  0  0  0  0
   27.0987  -13.6413    0.0000 C   0  0  0  0  0  0  0  0  0  0  0  0
   27.3455  -12.8615    0.0000 C   0  0  0  0  0  0  0  0  0  0  0  0
   26.6816  -12.3881    0.0000 N   0  0  0  0  0  0  0  0  0  0  0  0
   26.0232  -12.8708    0.0000 C   0  0  0  0  0  0  0  0  0  0  0  0
   26.2816  -13.6454    0.0000 C   0  0  0  0  0  0  0  0  0  0  0  0
   25.2434  -12.6240    0.0000 C   0  0  0  0  0  0  0  0  0  0  0  0
   25.0687  -11.8273    0.0000 C   0  0  0  0  0  0  0  0  0  0  0  0
   24.2890  -11.5805    0.0000 C   0  0  0  0  0  0  0  0  0  0  0  0
   23.6839  -12.1304    0.0000 C   0  0  0  0  0  0  0  0  0  0  0  0
   23.8627  -12.9270    0.0000 C   0  0  0  0  0  0  0  0  0  0  0  0
   24.6384  -13.1779    0.0000 C   0  0  0  0  0  0  0  0  0  0  0  0
   26.6774  -11.5709    0.0000 C   0  0  0  0  0  0  0  0  0  0  0  0
   27.3782  -11.1593    0.0000 C   0  0  0  0  0  0  0  0  0  0  0  0
   27.3741  -10.3422    0.0000 C   0  0  0  0  0  0  0  0  0  0  0  0
   26.6650   -9.9366    0.0000 C   0  0  0  0  0  0  0  0  0  0  0  0
   25.9601  -10.3482    0.0000 C   0  0  0  0  0  0  0  0  0  0  0  0
   25.9642  -11.1654    0.0000 C   0  0  0  0  0  0  0  0  0  0  0  0
   28.1202  -12.6073    0.0000 O   0  0  0  0  0  0  0  0  0  0  0  0
   28.3978  -14.2699    0.0000 C   0  0  0  0  0  0  0  0  0  0  0  0
   28.8278  -14.9653    0.0000 C   0  0  0  0  0  0  0  0  0  0  0  0
   29.6437  -14.9357    0.0000 C   0  0  0  0  0  0  0  0  0  0  0  0
   30.0269  -14.2130    0.0000 C   0  0  0  0  0  0  0  0  0  0  0  0
   29.5881  -13.5185    0.0000 C   0  0  0  0  0  0  0  0  0  0  0  0
   28.7737  -13.5515    0.0000 C   0  0  0  0  0  0  0  0  0  0  0  0
   30.8454  -14.1795    0.0000 C   0  0  0  0  0  0  0  0  0  0  0  0
   31.2806  -14.8712    0.0000 O   0  0  0  0  0  0  0  0  0  0  0  0
   31.2268  -13.4568    0.0000 O   0  0  0  0  0  0  0  0  0  0  0  0
   30.8992  -15.5939    0.0000 C   0  0  0  0  0  0  0  0  0  0  0  0
   31.3344  -16.2855    0.0000 C   0  0  0  0  0  0  0  0  0  0  0  0
   26.6614   -9.1194    0.0000 C   0  0  0  0  0  0  0  0  0  0  0  0
  1  2  2  0
  2  3  1  0
  3  4  1  0
  4  5  1  0
  5  6  2  0
  2  6  1  0
  5  7  1  0
  7  8  2  0
  8  9  1  0
  9 10  2  0
 10 11  1  0
 11 12  2  0
  7 12  1  0
  4 13  1  0
 13 14  2  0
 14 15  1  0
 15 16  2  0
 16 17  1  0
 17 18  2  0
 13 18  1  0
  3 19  2  0
  1 20  1  0
 20 21  2  0
 21 22  1  0
 22 23  2  0
 23 24  1  0
 24 25  2  0
 25 20  1  0
 26 27  1  0
 26 28  2  0
 23 26  1  0
 27 29  1  0
 29 30  1  0
 16 31  1  0
M  END
> <chembl_id>
CHEMBL4101377

> <chembl_pref_name>
None

$$$$
CHEMBL1253548
     RDKit          2D

 45 51  0  0  0  0  0  0  0  0999 V2000
   15.5142   -5.8400    0.0000 C   0  0  0  0  0  0  0  0  0  0  0  0
   14.6645   -5.8619    0.0000 C   0  0  0  0  0  0  0  0  0  0  0  0
   14.1880   -6.5106    0.0000 C   0  0  0  0  0  0  0  0  0  0  0  0
   16.0355   -6.4865    0.0000 C   0  0  0  0  0  0  0  0  0  0  0  0
   15.8469   -7.2848    0.0000 C   0  0  0  0  0  0  0  0  0  0  0  0
   15.0719   -7.6506    0.0000 C   0  0  0  0  0  0  0  0  0  0  0  0
   14.3646   -7.3010    0.0000 C   0  0  0  0  0  0  0  0  0  0  0  0
   14.2825   -5.1308    0.0000 O   0  0  0  0  0  0  0  0  0  0  0  0
   15.8601   -5.0911    0.0000 O   0  0  0  0  0  0  0  0  0  0  0  0
   16.8604   -6.4852    0.0000 C   0  0  0  0  0  0  0  0  0  0  0  0
   17.2740   -7.1990    0.0000 N   0  0  0  0  0  0  0  0  0  0  0  0
   13.3644   -6.5462    0.0000 C   0  0  0  0  0  0  0  0  0  0  0  0
   12.9207   -5.8507    0.0000 N   0  0  0  0  0  0  0  0  0  0  0  0
   15.0644   -8.4755    0.0000 C   0  0  0  0  0  0  0  0  0  0  0  0
   14.3463   -8.8816    0.0000 N   0  0  0  0  0  0  0  0  0  0  0  0
   16.8594   -7.9144    0.0000 C   0  0  0  0  0  0  0  0  0  0  0  0
   17.2695   -8.6260    0.0000 C   0  0  0  0  0  0  0  0  0  0  0  0
   18.0947   -8.6290    0.0000 C   0  0  0  0  0  0  0  0  0  0  0  0
   18.5083   -7.9142    0.0000 C   0  0  0  0  0  0  0  0  0  0  0  0
   18.0966   -7.1963    0.0000 C   0  0  0  0  0  0  0  0  0  0  0  0
   13.3012   -5.1156    0.0000 C   0  0  0  0  0  0  0  0  0  0  0  0
   12.8610   -4.4221    0.0000 C   0  0  0  0  0  0  0  0  0  0  0  0
   12.0364   -4.4545    0.0000 C   0  0  0  0  0  0  0  0  0  0  0  0
   11.6537   -5.1865    0.0000 C   0  0  0  0  0  0  0  0  0  0  0  0
   12.0958   -5.8860    0.0000 C   0  0  0  0  0  0  0  0  0  0  0  0
   13.6363   -8.4589    0.0000 C   0  0  0  0  0  0  0  0  0  0  0  0
   12.9204   -8.8614    0.0000 C   0  0  0  0  0  0  0  0  0  0  0  0
   12.9086   -9.6866    0.0000 C   0  0  0  0  0  0  0  0  0  0  0  0
   13.6191  -10.1078    0.0000 C   0  0  0  0  0  0  0  0  0  0  0  0
   14.3414   -9.7036    0.0000 C   0  0  0  0  0  0  0  0  0  0  0  0
   18.5060   -9.3440    0.0000 N   0  0  0  0  0  0  0  0  0  0  0  0
   12.1891  -10.0897    0.0000 N   0  0  0  0  0  0  0  0  0  0  0  0
   11.5955   -3.7573    0.0000 N   0  0  0  0  0  0  0  0  0  0  0  0
   11.8394   -2.9696    0.0000 C   0  0  0  0  0  0  0  0  0  0  0  0
   11.1675   -2.4908    0.0000 C   0  0  0  0  0  0  0  0  0  0  0  0
   10.5046   -2.9819    0.0000 C   0  0  0  0  0  0  0  0  0  0  0  0
   10.7668   -3.7640    0.0000 C   0  0  0  0  0  0  0  0  0  0  0  0
   11.4206   -9.7977    0.0000 C   0  0  0  0  0  0  0  0  0  0  0  0
   10.9016  -10.4389    0.0000 C   0  0  0  0  0  0  0  0  0  0  0  0
   11.3510  -11.1308    0.0000 C   0  0  0  0  0  0  0  0  0  0  0  0
   12.1478  -10.9170    0.0000 C   0  0  0  0  0  0  0  0  0  0  0  0
   18.2557  -10.1257    0.0000 C   0  0  0  0  0  0  0  0  0  0  0  0
   18.9225  -10.6113    0.0000 C   0  0  0  0  0  0  0  0  0  0  0  0
   19.5905  -10.1270    0.0000 C   0  0  0  0  0  0  0  0  0  0  0  0
   19.3362   -9.3422    0.0000 C   0  0  0  0  0  0  0  0  0  0  0  0
 10 11  1  0
  5  6  2  0
  3 12  1  0
 13 25  1  0
 21 22  1  0
 22 23  1  0
 23 24  1  0
 24 25  1  0
 15 26  1  0
  6  7  1  0
 12 13  1  0
  7  3  2  0
  6 14  1  0
  4  5  1  0
 15 30  1  0
 26 27  1  0
 27 28  1  0
 28 29  1  0
 29 30  1  0
 14 15  1  0
 18 31  1  0
 11 16  1  0
 28 32  1  0
 23 33  1  0
 33 34  1  0
  2  8  2  0
  1  2  1  0
  1  9  1  0
  2  3  1  0
 34 35  1  0
 35 36  1  0
 36 37  1  0
 37 33  1  0
 32 38  1  0
 11 20  1  0
 16 17  1  0
 17 18  1  0
 18 19  1  0
 38 39  1  0
 39 40  1  0
 40 41  1  0
 41 32  1  0
 31 42  1  0
 19 20  1  0
 13 21  1  0
  4 10  1  0
  1  4  2  0
 42 43  1  0
 43 44  1  0
 44 45  1  0
 45 31  1  0
M  END
> <chembl_id>
CHEMBL1253548

> <chembl_pref_name>
None

$$$$
CHEMBL1813569
     RDKit          2D

 59 63  0  0  0  0  0  0  0  0999 V2000
    3.8805   -0.9989    0.0000 C   0  0  0  0  0  0  0  0  0  0  0  0
    4.6816   -2.0481    0.0000 O   0  0  0  0  0  0  0  0  0  0  0  0
    3.8774   -1.8314    0.0000 S   0  0  0  0  0  0  0  0  0  0  0  0
    4.0913   -2.6352    0.0000 O   0  0  0  0  0  0  0  0  0  0  0  0
    1.0316    1.4562    0.0000 O   0  0  0  0  0  0  0  0  0  0  0  0
    0.3172    1.8750    0.0000 C   0  0  0  0  0  0  0  0  0  0  0  0
   -1.1007    2.7056    0.0000 N   0  0  0  0  0  0  0  0  0  0  0  0
   -1.1019    1.8771    0.0000 C   0  0  0  0  0  0  0  0  0  0  0  0
   -0.3922    1.4671    0.0000 C   0  0  0  0  0  0  0  0  0  0  0  0
   -0.3874    3.1183    0.0000 C   0  0  0  0  0  0  0  0  0  0  0  0
    0.3230    2.7030    0.0000 C   0  0  0  0  0  0  0  0  0  0  0  0
    1.0326    3.1080    0.0000 C   0  0  0  0  0  0  0  0  0  0  0  0
    1.0388    3.9299    0.0000 C   0  0  0  0  0  0  0  0  0  0  0  0
    0.3217    4.3409    0.0000 C   0  0  0  0  0  0  0  0  0  0  0  0
   -0.3853    3.9346    0.0000 C   0  0  0  0  0  0  0  0  0  0  0  0
    0.3202    5.1658    0.0000 O   0  0  0  0  0  0  0  0  0  0  0  0
    1.0375    5.5796    0.0000 C   0  0  0  0  0  0  0  0  0  0  0  0
   -1.8177    1.4646    0.0000 C   0  0  0  0  0  0  0  0  0  0  0  0
   -2.5326    1.8806    0.0000 C   0  0  0  0  0  0  0  0  0  0  0  0
   -3.2477    1.4650    0.0000 C   0  0  0  0  0  0  0  0  0  0  0  0
   -3.2484    0.6428    0.0000 C   0  0  0  0  0  0  0  0  0  0  0  0
   -2.5291    0.2306    0.0000 C   0  0  0  0  0  0  0  0  0  0  0  0
   -1.8143    0.6415    0.0000 C   0  0  0  0  0  0  0  0  0  0  0  0
    1.0296    0.6313    0.0000 C   0  0  0  0  0  0  0  0  0  0  0  0
    0.3077    0.2273    0.0000 C   0  0  0  0  0  0  0  0  0  0  0  0
    0.3052   -0.5965    0.0000 C   0  0  0  0  0  0  0  0  0  0  0  0
    1.0188   -1.0114    0.0000 C   0  0  0  0  0  0  0  0  0  0  0  0
    1.7330   -0.5976    0.0000 C   0  0  0  0  0  0  0  0  0  0  0  0
    1.7343    0.2242    0.0000 C   0  0  0  0  0  0  0  0  0  0  0  0
    1.0143   -1.8364    0.0000 C   0  0  0  0  0  0  0  0  0  0  0  0
   -0.4175   -1.8347    0.0000 C   0  0  0  0  0  0  0  0  0  0  0  0
   -1.1314   -2.2434    0.0000 C   0  0  0  0  0  0  0  0  0  0  0  0
   -0.4130   -1.0098    0.0000 O   0  0  0  0  0  0  0  0  0  0  0  0
   -1.1359   -3.0684    0.0000 C   0  0  0  0  0  0  0  0  0  0  0  0
   -1.8498   -3.4811    0.0000 C   0  0  0  0  0  0  0  0  0  0  0  0
   -0.4222   -3.4847    0.0000 C   0  0  0  0  0  0  0  0  0  0  0  0
   -1.1423   -3.8948    0.0000 C   0  0  0  0  0  0  0  0  0  0  0  0
    1.7238   -2.2528    0.0000 C   0  0  0  0  0  0  0  0  0  0  0  0
    2.4419   -1.8400    0.0000 O   0  0  0  0  0  0  0  0  0  0  0  0
    2.4371   -3.4983    0.0000 C   0  0  0  0  0  0  0  0  0  0  0  0
    2.4326   -4.3233    0.0000 C   0  0  0  0  0  0  0  0  0  0  0  0
    3.1552   -3.0813    0.0000 C   0  0  0  0  0  0  0  0  0  0  0  0
    3.1504   -4.7397    0.0000 C   0  0  0  0  0  0  0  0  0  0  0  0
    3.1460   -5.5646    0.0000 C   0  0  0  0  0  0  0  0  0  0  0  0
    3.8775   -3.5031    0.0000 O   0  0  0  0  0  0  0  0  0  0  0  0
    3.1593   -0.5796    0.0000 C   0  0  0  0  0  0  0  0  0  0  0  0
    3.1623    0.2537    0.0000 C   0  0  0  0  0  0  0  0  0  0  0  0
    2.4108    0.7352    0.0000 C   0  0  0  0  0  0  0  0  0  0  0  0
   -2.5604   -2.2431    0.0000 C   0  0  0  0  0  0  0  0  0  0  0  0
   -2.5639   -3.0655    0.0000 O   0  0  0  0  0  0  0  0  0  0  0  0
   -3.2841   -1.8286    0.0000 O   0  0  0  0  0  0  0  0  0  0  0  0
   -4.0038   -2.2398    0.0000 C   0  0  0  0  0  0  0  0  0  0  0  0
   -4.7174   -1.8260    0.0000 C   0  0  0  0  0  0  0  0  0  0  0  0
   -4.0053   -3.0600    0.0000 C   0  0  0  0  0  0  0  0  0  0  0  0
   -4.7133   -2.6590    0.0000 C   0  0  0  0  0  0  0  0  0  0  0  0
    3.1703   -2.2565    0.0000 N   0  0  0  0  0  0  0  0  0  0  0  0
    1.7273   -3.0778    0.0000 N   0  0  0  0  0  0  0  0  0  0  0  0
    0.2979   -2.2456    0.0000 N   0  0  0  0  0  0  0  0  0  0  0  0
   -1.8458   -1.8308    0.0000 N   0  0  0  0  0  0  0  0  0  0  0  0
  3  2  2  0
  4  3  2  0
  5  6  1  0
  6 11  2  0
 10  7  2  0
  7  8  1  0
  8  9  2  0
  9  6  1  0
 10 11  1  0
 11 12  1  0
 12 13  2  0
 13 14  1  0
 14 15  2  0
 15 10  1  0
 14 16  1  0
 16 17  1  0
  8 18  1  0
 18 19  2  0
 19 20  1  0
 20 21  2  0
 21 22  1  0
 22 23  2  0
 23 18  1  0
  5 24  1  0
 24 25  2  0
 25 26  1  0
 26 27  2  0
 27 28  1  0
 28 29  2  0
 29 24  1  0
 30 27  1  0
 31 32  1  0
 31 33  2  0
 32 34  1  6
 34 35  1  0
 34 36  1  0
 34 37  1  0
 30 38  1  0
 38 39  2  0
 40 41  1  6
 40 42  1  0
 41 43  1  0
 43 44  1  0
 42 45  2  0
  3  1  1  0
  1 46  1  0
 46 47  1  0
 29 48  1  0
 48 47  2  0
 49 50  2  0
 49 51  1  0
 51 52  1  0
 52 53  1  0
 52 54  1  0
 52 55  1  0
 42 56  1  0
  3 56  1  0
 38 57  1  0
 40 57  1  0
 30 58  1  1
 31 58  1  0
 32 59  1  0
 49 59  1  0
M  END
> <chembl_id>
CHEMBL1813569

> <chembl_pref_name>
None

$$$$
CHEMBL1596969
     RDKit          2D

 29 30  0  0  0  0  0  0  0  0999 V2000
   -1.4284   -4.1271    0.0000 S   0  0  0  0  0  0  0  0  0  0  0  0
    2.1440   -2.0646    0.0000 O   0  0  0  0  0  0  0  0  0  0  0  0
   -2.8573   -4.1271    0.0000 O   0  0  0  0  0  0  0  0  0  0  0  0
    0.7150   -2.0646    0.0000 O   0  0  0  0  0  0  0  0  0  0  0  0
   -5.0007   -4.5396    0.0000 O   0  0  0  0  0  0  0  0  0  0  0  0
   -3.5718   -4.5396    0.0000 O   0  0  0  0  0  0  0  0  0  0  0  0
   -4.2862   -4.1271    0.0000 N   0  0  0  0  0  0  0  0  0  0  0  0
   -2.1428   -2.8896    0.0000 N   0  0  0  0  0  0  0  0  0  0  0  0
    0.0006   -3.3021    0.0000 N   0  0  0  0  0  0  0  0  0  0  0  0
   -0.7139   -2.8896    0.0000 N   0  0  0  0  0  0  0  0  0  0  0  0
   -3.5718   -2.8896    0.0000 C   0  0  0  0  0  0  0  0  0  0  0  0
   -4.2862   -3.3021    0.0000 C   0  0  0  0  0  0  0  0  0  0  0  0
   -2.8573   -3.3021    0.0000 C   0  0  0  0  0  0  0  0  0  0  0  0
    1.4295   -3.3021    0.0000 C   0  0  0  0  0  0  0  0  0  0  0  0
    2.1440   -2.8896    0.0000 C   0  0  0  0  0  0  0  0  0  0  0  0
    0.7150   -2.8896    0.0000 C   0  0  0  0  0  0  0  0  0  0  0  0
   -3.5718   -2.0646    0.0000 C   0  0  0  0  0  0  0  0  0  0  0  0
   -5.0007   -2.8896    0.0000 C   0  0  0  0  0  0  0  0  0  0  0  0
   -1.4284   -3.3021    0.0000 C   0  0  0  0  0  0  0  0  0  0  0  0
    1.4295   -4.1271    0.0000 C   0  0  0  0  0  0  0  0  0  0  0  0
    2.8585   -3.3021    0.0000 C   0  0  0  0  0  0  0  0  0  0  0  0
   -4.2862   -1.6521    0.0000 C   0  0  0  0  0  0  0  0  0  0  0  0
   -5.0007   -2.0646    0.0000 C   0  0  0  0  0  0  0  0  0  0  0  0
    2.1440   -4.5396    0.0000 C   0  0  0  0  0  0  0  0  0  0  0  0
    2.8585   -4.1271    0.0000 C   0  0  0  0  0  0  0  0  0  0  0  0
    2.8585   -1.6521    0.0000 C   0  0  0  0  0  0  0  0  0  0  0  0
    2.8585   -0.8271    0.0000 C   0  0  0  0  0  0  0  0  0  0  0  0
    3.5729   -0.4146    0.0000 C   0  0  0  0  0  0  0  0  0  0  0  0
    3.5729    0.4104    0.0000 C   0  0  0  0  0  0  0  0  0  0  0  0
  1 19  2  0
  2 15  1  0
  2 26  1  0
  3 13  2  0
  4 16  2  0
  5  7  1  0
  6  7  2  0
  7 12  1  0
  8 13  1  0
  8 19  1  0
  9 10  1  0
  9 16  1  0
 10 19  1  0
 11 12  1  0
 11 13  1  0
 11 17  2  0
 12 18  2  0
 14 15  1  0
 14 16  1  0
 14 20  2  0
 15 21  2  0
 17 22  1  0
 18 23  1  0
 20 24  1  0
 21 25  1  0
 22 23  2  0
 24 25  2  0
 26 27  1  0
 27 28  1  0
 28 29  1  0
M  CHG  2   5  -1   7   1
M  END
> <chembl_id>
CHEMBL1596969

> <chembl_pref_name>
None

$$$$
CHEMBL4537059
     RDKit          2D

 17 19  0  0  0  0  0  0  0  0999 V2000
    4.1466   -3.8694    0.0000 S   0  0  0  0  0  0  0  0  0  0  0  0
    4.6455   -3.2220    0.0000 C   0  0  0  0  0  0  0  0  0  0  0  0
    4.1813   -2.5464    0.0000 N   0  0  0  0  0  0  0  0  0  0  0  0
    3.3762   -3.5969    0.0000 C   0  0  0  0  0  0  0  0  0  0  0  0
    3.3994   -2.7822    0.0000 C   0  0  0  0  0  0  0  0  0  0  0  0
    2.7066   -2.3566    0.0000 C   0  0  0  0  0  0  0  0  0  0  0  0
    1.9902   -2.7445    0.0000 C   0  0  0  0  0  0  0  0  0  0  0  0
    1.9708   -3.5623    0.0000 N   0  0  0  0  0  0  0  0  0  0  0  0
    2.6643   -3.9843    0.0000 C   0  0  0  0  0  0  0  0  0  0  0  0
    5.4592   -3.2456    0.0000 C   0  0  0  0  0  0  0  0  0  0  0  0
    5.8477   -3.9658    0.0000 C   0  0  0  0  0  0  0  0  0  0  0  0
    6.6638   -3.9884    0.0000 C   0  0  0  0  0  0  0  0  0  0  0  0
    7.0924   -3.2916    0.0000 C   0  0  0  0  0  0  0  0  0  0  0  0
    6.6989   -2.5706    0.0000 C   0  0  0  0  0  0  0  0  0  0  0  0
    5.8840   -2.5515    0.0000 C   0  0  0  0  0  0  0  0  0  0  0  0
    5.4929   -1.8340    0.0000 O   0  0  0  0  0  0  0  0  0  0  0  0
    5.9187   -1.1365    0.0000 C   0  0  0  0  0  0  0  0  0  0  0  0
  4  1  1  0
  1  2  1  0
  2  3  2  0
  3  5  1  0
  4  5  2  0
  5  6  1  0
  6  7  2  0
  7  8  1  0
  8  9  2  0
  9  4  1  0
 10 11  2  0
 11 12  1  0
 12 13  2  0
 13 14  1  0
 14 15  2  0
 15 10  1  0
  2 10  1  0
 15 16  1  0
 16 17  1  0
M  END
> <chembl_id>
CHEMBL4537059

> <chembl_pref_name>
None

$$$$
CHEMBL3948302
     RDKit          2D

 25 29  0  0  0  0  0  0  0  0999 V2000
   10.9593  -11.8875    0.0000 C   0  0  0  0  0  0  0  0  0  0  0  0
   10.8753  -11.0771    0.0000 N   0  0  0  0  0  0  0  0  0  0  0  0
   10.0769  -10.9064    0.0000 C   0  0  0  0  0  0  0  0  0  0  0  0
    9.6683  -11.6113    0.0000 C   0  0  0  0  0  0  0  0  0  0  0  0
   10.2120  -12.2219    0.0000 N   0  0  0  0  0  0  0  0  0  0  0  0
    8.8511  -11.6113    0.0000 C   0  0  0  0  0  0  0  0  0  0  0  0
    8.4425  -10.9064    0.0000 C   0  0  0  0  0  0  0  0  0  0  0  0
    8.8511  -10.1973    0.0000 C   0  0  0  0  0  0  0  0  0  0  0  0
    9.6683  -10.1973    0.0000 C   0  0  0  0  0  0  0  0  0  0  0  0
   11.6684  -12.2961    0.0000 C   0  0  0  0  0  0  0  0  0  0  0  0
   12.3775  -11.8875    0.0000 O   0  0  0  0  0  0  0  0  0  0  0  0
   11.6684  -13.1133    0.0000 N   0  0  0  0  0  0  0  0  0  0  0  0
   10.9593  -13.5219    0.0000 N   0  0  0  0  0  0  0  0  0  0  0  0
   11.6684  -15.5649    0.0000 C   0  0  0  0  0  0  0  0  0  0  0  0
   10.9593  -15.9735    0.0000 N   0  0  0  0  0  0  0  0  0  0  0  0
   10.2502  -15.5649    0.0000 C   0  0  0  0  0  0  0  0  0  0  0  0
   10.2502  -14.7477    0.0000 C   0  0  0  0  0  0  0  0  0  0  0  0
   10.9593  -14.3391    0.0000 C   0  0  0  0  0  0  0  0  0  0  0  0
   11.6684  -14.7477    0.0000 N   0  0  0  0  0  0  0  0  0  0  0  0
    9.4730  -14.4972    0.0000 C   0  0  0  0  0  0  0  0  0  0  0  0
    8.9970  -15.1563    0.0000 C   0  0  0  0  0  0  0  0  0  0  0  0
    9.4730  -15.8196    0.0000 S   0  0  0  0  0  0  0  0  0  0  0  0
    8.2156  -14.9057    0.0000 C   0  0  0  0  0  0  0  0  0  0  0  0
    8.2156  -14.0886    0.0000 C   0  0  0  0  0  0  0  0  0  0  0  0
    8.9970  -13.8339    0.0000 C   0  0  0  0  0  0  0  0  0  0  0  0
  1  2  1  0
  2  3  1  0
  3  4  1  0
  4  5  1  0
  1  5  2  0
  6  7  1  0
  7  8  2  0
  8  9  1  0
  3  9  2  0
  4  6  2  0
 12 13  1  0
 10 11  2  0
 10 12  1  0
  1 10  1  0
 14 15  1  0
 15 16  2  0
 16 17  1  0
 17 18  2  0
 18 19  1  0
 14 19  2  0
 20 21  2  0
 21 22  1  0
 23 24  1  0
 24 25  1  0
 20 25  1  0
 21 23  1  0
 16 22  1  0
 17 20  1  0
 13 18  1  0
M  END
> <chembl_id>
CHEMBL3948302

> <chembl_pref_name>
None

$$$$
CHEMBL3191950
     RDKit          2D

 37 39  0  0  0  0  0  0  0  0999 V2000
   -1.3039   -3.7494    0.0000 O   0  0  0  0  0  0  0  0  0  0  0  0
    3.6207    8.1136    0.0000 O   0  0  0  0  0  0  0  0  0  0  0  0
    2.6003   -1.4977    0.0000 O   0  0  0  0  0  0  0  0  0  0  0  0
    1.2807    9.4605    0.0000 O   0  0  0  0  0  0  0  0  0  0  0  0
    3.6242    5.4136    0.0000 O   0  0  0  0  0  0  0  0  0  0  0  0
   -2.3522    5.8510    0.0000 O   0  0  0  0  0  0  0  0  0  0  0  0
   -0.0032  -10.4997    0.0000 O   0  0  0  0  0  0  0  0  0  0  0  0
   -2.3422  -10.3529    0.0000 O   0  0  0  0  0  0  0  0  0  0  0  0
   -1.3071    3.7533    0.0000 N   0  0  0  0  0  0  0  0  0  0  0  0
   -2.6044    2.9986    0.0000 N   0  0  0  0  0  0  0  0  0  0  0  0
   -0.0139    6.0088    0.0000 C   0  0  0  0  0  0  0  0  0  0  0  0
    2.5823    7.5122    0.0000 C   0  0  0  0  0  0  0  0  0  0  0  0
    1.2823    8.2605    0.0000 C   0  0  0  0  0  0  0  0  0  0  0  0
    2.5842    6.0122    0.0000 C   0  0  0  0  0  0  0  0  0  0  0  0
    0.0000   -1.5000    0.0000 C   0  0  0  0  0  0  0  0  0  0  0  0
   -0.0158    7.5089    0.0000 C   0  0  0  0  0  0  0  0  0  0  0  0
    1.2862    5.2605    0.0000 C   0  0  0  0  0  0  0  0  0  0  0  0
   -1.3112    5.2541    0.0000 C   0  0  0  0  0  0  0  0  0  0  0  0
    1.2990   -0.7500    0.0000 C   0  0  0  0  0  0  0  0  0  0  0  0
   -1.2990    0.7500    0.0000 C   0  0  0  0  0  0  0  0  0  0  0  0
   -1.2990   -0.7500    0.0000 C   0  0  0  0  0  0  0  0  0  0  0  0
   -0.0031   -3.0008    0.0000 C   0  0  0  0  0  0  0  0  0  0  0  0
   -1.3070   -5.2502    0.0000 C   0  0  0  0  0  0  0  0  0  0  0  0
    1.2990    0.7500    0.0000 C   0  0  0  0  0  0  0  0  0  0  0  0
    0.0000    1.5000    0.0000 C   0  0  0  0  0  0  0  0  0  0  0  0
   -1.3070   -8.2503    0.0000 C   0  0  0  0  0  0  0  0  0  0  0  0
   -2.6003    1.4977    0.0000 C   0  0  0  0  0  0  0  0  0  0  0  0
   -2.6060   -6.0003    0.0000 C   0  0  0  0  0  0  0  0  0  0  0  0
   -0.0079   -6.0003    0.0000 C   0  0  0  0  0  0  0  0  0  0  0  0
   -1.3040   -9.7511    0.0000 C   0  0  0  0  0  0  0  0  0  0  0  0
   -2.6060   -7.5003    0.0000 C   0  0  0  0  0  0  0  0  0  0  0  0
   -0.0080   -7.5003    0.0000 C   0  0  0  0  0  0  0  0  0  0  0  0
    3.6387   -0.8963    0.0000 C   0  0  0  0  0  0  0  0  0  0  0  0
   -0.0001  -12.0006    0.0000 C   0  0  0  0  0  0  0  0  0  0  0  0
    1.3007  -12.7491    0.0000 C   0  0  0  0  0  0  0  0  0  0  0  0
    1.3031  -13.9491    0.0000 C   0  0  0  0  0  0  0  0  0  0  0  0
    2.3389  -12.1474    0.0000 C   0  0  0  0  0  0  0  0  0  0  0  0
  1 22  1  0
  1 23  1  0
  2 12  1  0
  3 19  1  0
  3 33  1  0
  4 13  1  0
  5 14  1  0
  6 18  2  0
  7 30  1  0
  7 34  1  0
  8 30  2  0
  9 10  1  0
  9 18  1  0
 10 27  2  0
 11 16  2  0
 11 17  1  0
 11 18  1  0
 12 13  2  0
 12 14  1  0
 13 16  1  0
 14 17  2  0
 15 19  1  0
 15 21  2  0
 15 22  1  0
 19 24  2  0
 20 21  1  0
 20 25  2  0
 20 27  1  0
 23 28  2  0
 23 29  1  0
 24 25  1  0
 26 30  1  0
 26 31  2  0
 26 32  1  0
 28 31  1  0
 29 32  2  0
 34 35  1  0
 35 36  1  0
 35 37  1  0
M  END
> <chembl_id>
CHEMBL3191950

> <chembl_pref_name>
None

$$$$
CHEMBL261237
     RDKit          2D

 23 24  0  0  0  0  0  0  0  0999 V2000
   -0.6848  -25.2958    0.0000 C   0  0  0  0  0  0  0  0  0  0  0  0
   -0.6859  -26.1232    0.0000 C   0  0  0  0  0  0  0  0  0  0  0  0
    0.0289  -26.5360    0.0000 C   0  0  0  0  0  0  0  0  0  0  0  0
    0.7453  -26.1227    0.0000 C   0  0  0  0  0  0  0  0  0  0  0  0
    0.7425  -25.2922    0.0000 C   0  0  0  0  0  0  0  0  0  0  0  0
    0.0271  -24.8830    0.0000 C   0  0  0  0  0  0  0  0  0  0  0  0
    0.0246  -24.0580    0.0000 C   0  0  0  0  0  0  0  0  0  0  0  0
    0.7379  -23.6434    0.0000 C   0  0  0  0  0  0  0  0  0  0  0  0
    0.7354  -22.8184    0.0000 S   0  0  0  0  0  0  0  0  0  0  0  0
    1.4536  -24.0538    0.0000 N   0  0  0  0  0  0  0  0  0  0  0  0
    1.4486  -22.4038    0.0000 C   0  0  0  0  0  0  0  0  0  0  0  0
    2.1613  -22.8140    0.0000 C   0  0  0  0  0  0  0  0  0  0  0  0
    2.8740  -22.4001    0.0000 C   0  0  0  0  0  0  0  0  0  0  0  0
    2.8720  -21.5742    0.0000 C   0  0  0  0  0  0  0  0  0  0  0  0
    2.1513  -21.1640    0.0000 C   0  0  0  0  0  0  0  0  0  0  0  0
    1.4415  -21.5803    0.0000 C   0  0  0  0  0  0  0  0  0  0  0  0
    3.5847  -21.1586    0.0000 N   0  0  0  0  0  0  0  0  0  0  0  0
   -0.6915  -23.6497    0.0000 C   0  0  0  0  0  0  0  0  0  0  0  0
   -1.4072  -23.2394    0.0000 N   0  0  0  0  0  0  0  0  0  0  0  0
   -1.3993  -24.8835    0.0000 C   0  0  0  0  0  0  0  0  0  0  0  0
   -0.9917  -24.1667    0.0000 F   0  0  0  0  0  0  0  0  0  0  0  0
   -2.1167  -24.4708    0.0000 F   0  0  0  0  0  0  0  0  0  0  0  0
   -1.8050  -25.6019    0.0000 F   0  0  0  0  0  0  0  0  0  0  0  0
  5  6  2  0
 11 12  2  0
  6  1  1  0
 12 13  1  0
  1  2  2  0
 13 14  2  0
  6  7  1  0
 14 15  1  0
  3  4  2  0
 15 16  2  0
 16 11  1  0
  7  8  2  0
 14 17  1  0
  8  9  1  0
 18 19  3  0
  7 18  1  0
  4  5  1  0
  1 20  1  0
  8 10  1  0
 20 21  1  0
  2  3  1  0
 20 22  1  0
  9 11  1  0
 20 23  1  0
M  END
> <chembl_id>
CHEMBL261237

> <chembl_pref_name>
None

$$$$
CHEMBL3913532
     RDKit          2D

 24 28  0  0  0  0  0  0  0  0999 V2000
   11.6191  -11.4921    0.0000 C   0  0  0  0  0  0  0  0  0  0  0  0
   10.9100  -11.9007    0.0000 N   0  0  0  0  0  0  0  0  0  0  0  0
   10.2051  -11.4920    0.0000 C   0  0  0  0  0  0  0  0  0  0  0  0
   10.2052  -10.6748    0.0000 C   0  0  0  0  0  0  0  0  0  0  0  0
   10.9102  -10.2663    0.0000 C   0  0  0  0  0  0  0  0  0  0  0  0
   11.6192  -10.6750    0.0000 N   0  0  0  0  0  0  0  0  0  0  0  0
    9.4280  -10.4200    0.0000 C   0  0  0  0  0  0  0  0  0  0  0  0
    8.9478  -11.0832    0.0000 C   0  0  0  0  0  0  0  0  0  0  0  0
    9.4278  -11.7424    0.0000 S   0  0  0  0  0  0  0  0  0  0  0  0
    8.1332  -10.9950    0.0000 C   0  0  0  0  0  0  0  0  0  0  0  0
    7.8031  -10.2518    0.0000 C   0  0  0  0  0  0  0  0  0  0  0  0
    8.2833   -9.5886    0.0000 C   0  0  0  0  0  0  0  0  0  0  0  0
    9.0937   -9.6727    0.0000 C   0  0  0  0  0  0  0  0  0  0  0  0
   10.9103   -9.4491    0.0000 N   0  0  0  0  0  0  0  0  0  0  0  0
   11.6194   -9.0406    0.0000 C   0  0  0  0  0  0  0  0  0  0  0  0
   12.3250   -9.4535    0.0000 C   0  0  0  0  0  0  0  0  0  0  0  0
   13.0337   -9.0457    0.0000 C   0  0  0  0  0  0  0  0  0  0  0  0
   13.0349   -8.2264    0.0000 C   0  0  0  0  0  0  0  0  0  0  0  0
   11.6158   -8.2269    0.0000 C   0  0  0  0  0  0  0  0  0  0  0  0
   12.3203   -7.8176    0.0000 C   0  0  0  0  0  0  0  0  0  0  0  0
   12.3172   -7.0047    0.0000 C   0  0  0  0  0  0  0  0  0  0  0  0
   11.6103   -6.6001    0.0000 C   0  0  0  0  0  0  0  0  0  0  0  0
   10.9051   -7.0143    0.0000 C   0  0  0  0  0  0  0  0  0  0  0  0
   10.9117   -7.8259    0.0000 C   0  0  0  0  0  0  0  0  0  0  0  0
  1  2  1  0
  2  3  2  0
  3  4  1  0
  4  5  2  0
  5  6  1  0
  1  6  2  0
  7  8  2  0
  8  9  1  0
 10 11  1  0
 11 12  1  0
 12 13  1  0
  7 13  1  0
  8 10  1  0
  3  9  1  0
  4  7  1  0
  5 14  1  0
 14 15  1  0
 15 16  2  0
 16 17  1  0
 17 18  2  0
 18 20  1  0
 19 15  1  0
 19 20  1  0
 20 21  2  0
 21 22  1  0
 22 23  2  0
 23 24  1  0
 24 19  2  0
M  END
> <chembl_id>
CHEMBL3913532

> <chembl_pref_name>
None

$$$$
CHEMBL134204
     RDKit          2D

 21 23  0  0  0  0  0  0  0  0999 V2000
   11.7833  -14.9119    0.0000 C   0  0  0  0  0  0  0  0  0  0  0  0
   11.0640  -14.5079    0.0000 C   0  0  0  0  0  0  0  0  0  0  0  0
   11.0542  -13.6830    0.0000 C   0  0  0  0  0  0  0  0  0  0  0  0
   11.7637  -13.2620    0.0000 C   0  0  0  0  0  0  0  0  0  0  0  0
   12.4830  -13.6659    0.0000 N   0  0  0  0  0  0  0  0  0  0  0  0
   12.4928  -14.4909    0.0000 N   0  0  0  0  0  0  0  0  0  0  0  0
    9.7896  -14.1106    0.0000 C   0  0  0  0  0  0  0  0  0  0  0  0
   10.2825  -14.7722    0.0000 N   0  0  0  0  0  0  0  0  0  0  0  0
   10.2666  -13.4374    0.0000 N   0  0  0  0  0  0  0  0  0  0  0  0
   11.7538  -12.4370    0.0000 O   0  0  0  0  0  0  0  0  0  0  0  0
   11.7932  -15.7368    0.0000 O   0  0  0  0  0  0  0  0  0  0  0  0
   10.0369  -15.5598    0.0000 C   0  0  0  0  0  0  0  0  0  0  0  0
   10.5298  -16.2214    0.0000 C   0  0  0  0  0  0  0  0  0  0  0  0
   11.3547  -16.2116    0.0000 O   0  0  0  0  0  0  0  0  0  0  0  0
   10.0528  -16.8946    0.0000 C   0  0  0  0  0  0  0  0  0  0  0  0
   10.3171  -17.6761    0.0000 O   0  0  0  0  0  0  0  0  0  0  0  0
    9.2652  -16.6490    0.0000 C   0  0  0  0  0  0  0  0  0  0  0  0
    9.2554  -15.8241    0.0000 O   0  0  0  0  0  0  0  0  0  0  0  0
    8.6036  -17.1419    0.0000 C   0  0  0  0  0  0  0  0  0  0  0  0
    8.7424  -17.9551    0.0000 O   0  0  0  0  0  0  0  0  0  0  0  0
   11.7757  -16.9211    0.0000 C   0  0  0  0  0  0  0  0  0  0  0  0
  1  2  1  0
  2  3  2  0
  3  4  1  0
  4  5  1  0
  5  6  1  0
  1  6  1  0
  7  8  1  0
  7  9  2  0
  2  8  1  0
  3  9  1  0
  4 10  2  0
  1 11  2  0
 12 13  1  0
 13 14  1  6
 13 15  1  0
 15 16  1  6
 15 17  1  0
 17 18  1  0
 17 19  1  1
 19 20  1  0
 12 18  1  0
 14 21  1  0
 12  8  1  1
M  END
> <chembl_id>
CHEMBL134204

> <chembl_pref_name>
None

$$$$
CHEMBL4521406
     RDKit          2D

 21 24  0  0  0  0  0  0  0  0999 V2000
   21.8769   -1.6047    0.0000 N   0  0  0  0  0  0  0  0  0  0  0  0
   21.2139   -1.1226    0.0000 N   0  0  0  0  0  0  0  0  0  0  0  0
   20.5552   -1.6047    0.0000 C   0  0  0  0  0  0  0  0  0  0  0  0
   21.6225   -2.3814    0.0000 C   0  0  0  0  0  0  0  0  0  0  0  0
   20.8053   -2.3814    0.0000 N   0  0  0  0  0  0  0  0  0  0  0  0
   20.5528   -3.1586    0.0000 N   0  0  0  0  0  0  0  0  0  0  0  0
   21.2139   -3.6390    0.0000 C   0  0  0  0  0  0  0  0  0  0  0  0
   21.8750   -3.1586    0.0000 S   0  0  0  0  0  0  0  0  0  0  0  0
   21.2140   -4.4562    0.0000 C   0  0  0  0  0  0  0  0  0  0  0  0
   20.5065   -4.8615    0.0000 C   0  0  0  0  0  0  0  0  0  0  0  0
   20.5062   -5.6780    0.0000 N   0  0  0  0  0  0  0  0  0  0  0  0
   21.2145   -6.0874    0.0000 C   0  0  0  0  0  0  0  0  0  0  0  0
   21.9245   -5.6743    0.0000 C   0  0  0  0  0  0  0  0  0  0  0  0
   21.9213   -4.8593    0.0000 C   0  0  0  0  0  0  0  0  0  0  0  0
   22.6271   -4.4473    0.0000 O   0  0  0  0  0  0  0  0  0  0  0  0
   23.3367   -4.8524    0.0000 C   0  0  0  0  0  0  0  0  0  0  0  0
   23.3365   -5.6678    0.0000 C   0  0  0  0  0  0  0  0  0  0  0  0
   24.0454   -6.0729    0.0000 C   0  0  0  0  0  0  0  0  0  0  0  0
   24.7521   -5.6608    0.0000 C   0  0  0  0  0  0  0  0  0  0  0  0
   24.7455   -4.8394    0.0000 C   0  0  0  0  0  0  0  0  0  0  0  0
   24.0361   -4.4380    0.0000 C   0  0  0  0  0  0  0  0  0  0  0  0
  4  1  2  0
  1  2  1  0
  2  3  2  0
  3  5  1  0
  4  5  1  0
  5  6  1  0
  6  7  2  0
  7  8  1  0
  8  4  1  0
  7  9  1  0
  9 10  2  0
 10 11  1  0
 11 12  2  0
 12 13  1  0
 13 14  2  0
 14  9  1  0
 14 15  1  0
 15 16  1  0
 16 17  2  0
 17 18  1  0
 18 19  2  0
 19 20  1  0
 20 21  2  0
 21 16  1  0
M  END
> <chembl_id>
CHEMBL4521406

> <chembl_pref_name>
None

$$$$
CHEMBL1089152
     RDKit          2D

 26 29  0  0  0  0  0  0  0  0999 V2000
   13.4393   -9.1968    0.0000 C   0  0  0  0  0  0  0  0  0  0  0  0
   13.4393  -10.0225    0.0000 C   0  0  0  0  0  0  0  0  0  0  0  0
   14.1505  -10.4331    0.0000 C   0  0  0  0  0  0  0  0  0  0  0  0
   14.8616  -10.0225    0.0000 C   0  0  0  0  0  0  0  0  0  0  0  0
   14.8610   -9.1948    0.0000 C   0  0  0  0  0  0  0  0  0  0  0  0
   14.1505   -8.7816    0.0000 C   0  0  0  0  0  0  0  0  0  0  0  0
   15.5748  -10.4388    0.0000 N   0  0  0  0  0  0  0  0  0  0  0  0
   16.2937  -10.0247    0.0000 C   0  0  0  0  0  0  0  0  0  0  0  0
   17.0052  -10.4420    0.0000 C   0  0  0  0  0  0  0  0  0  0  0  0
   17.7190  -10.0288    0.0000 C   0  0  0  0  0  0  0  0  0  0  0  0
   17.7209   -9.2020    0.0000 C   0  0  0  0  0  0  0  0  0  0  0  0
   17.0022   -8.7906    0.0000 C   0  0  0  0  0  0  0  0  0  0  0  0
   17.0028  -11.2631    0.0000 C   0  0  0  0  0  0  0  0  0  0  0  0
   16.2877  -11.6762    0.0000 O   0  0  0  0  0  0  0  0  0  0  0  0
   17.7154  -11.6804    0.0000 N   0  0  0  0  0  0  0  0  0  0  0  0
   14.1505  -11.2587    0.0000 O   0  0  0  0  0  0  0  0  0  0  0  0
   13.4366  -11.6693    0.0000 C   0  0  0  0  0  0  0  0  0  0  0  0
   15.5756   -8.7858    0.0000 C   0  0  0  0  0  0  0  0  0  0  0  0
   16.2932   -9.1978    0.0000 C   0  0  0  0  0  0  0  0  0  0  0  0
   15.5774   -7.9600    0.0000 O   0  0  0  0  0  0  0  0  0  0  0  0
   18.4304  -11.2673    0.0000 C   0  0  0  0  0  0  0  0  0  0  0  0
   19.1435  -11.6859    0.0000 N   0  0  0  0  0  0  0  0  0  0  0  0
   19.8579  -11.2736    0.0000 C   0  0  0  0  0  0  0  0  0  0  0  0
   19.8609  -10.4470    0.0000 C   0  0  0  0  0  0  0  0  0  0  0  0
   19.1427  -10.0346    0.0000 C   0  0  0  0  0  0  0  0  0  0  0  0
   18.4270  -10.4449    0.0000 C   0  0  0  0  0  0  0  0  0  0  0  0
 19  8  2  0
  5  6  1  0
  9 13  1  0
 13 14  2  0
  4  7  1  0
 13 15  1  0
  1  2  1  0
  3 16  1  0
  7  8  1  0
 16 17  1  0
  1  6  2  0
  5 18  1  0
  8  9  1  0
 18 19  1  0
  2  3  2  0
 18 20  2  0
  9 10  2  0
 15 21  1  0
  3  4  1  0
 21 22  2  0
 10 11  1  0
 22 23  1  0
  4  5  2  0
 23 24  2  0
 11 12  2  0
 24 25  1  0
 12 19  1  0
 25 26  2  0
 26 21  1  0
M  END
> <chembl_id>
CHEMBL1089152

> <chembl_pref_name>
None

$$$$
CHEMBL1257841
     RDKit          2D

 29 32  0  0  0  0  0  0  0  0999 V2000
   21.8527   -9.7166    0.0000 C   0  0  0  0  0  0  0  0  0  0  0  0
   21.8516  -10.5440    0.0000 C   0  0  0  0  0  0  0  0  0  0  0  0
   22.5664  -10.9569    0.0000 C   0  0  0  0  0  0  0  0  0  0  0  0
   22.5646   -9.3039    0.0000 C   0  0  0  0  0  0  0  0  0  0  0  0
   23.2800   -9.7130    0.0000 C   0  0  0  0  0  0  0  0  0  0  0  0
   23.2834  -10.5461    0.0000 C   0  0  0  0  0  0  0  0  0  0  0  0
   24.0026  -10.9574    0.0000 O   0  0  0  0  0  0  0  0  0  0  0  0
   24.7230  -10.5402    0.0000 C   0  0  0  0  0  0  0  0  0  0  0  0
   24.7195   -9.7071    0.0000 C   0  0  0  0  0  0  0  0  0  0  0  0
   23.9957   -9.2912    0.0000 C   0  0  0  0  0  0  0  0  0  0  0  0
   25.4361  -10.9500    0.0000 C   0  0  0  0  0  0  0  0  0  0  0  0
   25.4370  -11.7761    0.0000 C   0  0  0  0  0  0  0  0  0  0  0  0
   26.1517  -12.1866    0.0000 C   0  0  0  0  0  0  0  0  0  0  0  0
   26.8661  -11.7721    0.0000 C   0  0  0  0  0  0  0  0  0  0  0  0
   26.8611  -10.9428    0.0000 C   0  0  0  0  0  0  0  0  0  0  0  0
   26.1458  -10.5361    0.0000 C   0  0  0  0  0  0  0  0  0  0  0  0
   21.1368  -10.9559    0.0000 O   0  0  0  0  0  0  0  0  0  0  0  0
   21.1361  -11.7809    0.0000 C   0  0  0  0  0  0  0  0  0  0  0  0
   20.4213  -12.1929    0.0000 C   0  0  0  0  0  0  0  0  0  0  0  0
   19.7089  -11.7770    0.0000 C   0  0  0  0  0  0  0  0  0  0  0  0
   18.9946  -12.1883    0.0000 C   0  0  0  0  0  0  0  0  0  0  0  0
   18.9935  -13.0141    0.0000 C   0  0  0  0  0  0  0  0  0  0  0  0
   19.7127  -13.4271    0.0000 C   0  0  0  0  0  0  0  0  0  0  0  0
   20.4241  -13.0134    0.0000 C   0  0  0  0  0  0  0  0  0  0  0  0
   22.5621   -8.4789    0.0000 O   0  0  0  0  0  0  0  0  0  0  0  0
   23.9912   -8.4662    0.0000 O   0  0  0  0  0  0  0  0  0  0  0  0
   25.4327   -9.2924    0.0000 O   0  0  0  0  0  0  0  0  0  0  0  0
   19.7172  -14.2493    0.0000 C   0  0  0  0  0  0  0  0  0  0  0  0
   19.7195  -15.0743    0.0000 N   0  0  0  0  0  0  0  0  0  0  0  0
  1  2  2  0
 14 15  1  0
  5  4  2  0
 15 16  2  0
 16 11  1  0
  8 11  1  0
  4  1  1  0
  2 17  1  0
  5 10  1  0
 17 18  1  0
  6  7  1  0
 18 19  1  0
  7  8  1  0
 19 20  2  0
  8  9  2  0
 20 21  1  0
  9 10  1  0
 21 22  2  0
  5  6  1  0
 22 23  1  0
 23 24  2  0
 24 19  1  0
 11 12  2  0
  4 25  1  0
  2  3  1  0
 10 26  2  0
 12 13  1  0
  9 27  1  0
  3  6  2  0
 13 14  2  0
 28 29  3  0
 23 28  1  0
M  END
> <chembl_id>
CHEMBL1257841

> <chembl_pref_name>
None

$$$$
CHEMBL1467976
     RDKit          2D

 31 35  0  0  0  0  0  0  0  0999 V2000
    0.0970    2.1058    0.0000 O   0  0  0  0  0  0  0  0  0  0  0  0
   -1.3319    2.1058    0.0000 O   0  0  0  0  0  0  0  0  0  0  0  0
    2.2791   -2.3339    0.0000 O   0  0  0  0  0  0  0  0  0  0  0  0
    1.5259    2.9308    0.0000 O   0  0  0  0  0  0  0  0  0  0  0  0
   -0.6175   -0.7817    0.0000 N   0  0  0  0  0  0  0  0  0  0  0  0
    0.8115    4.1683    0.0000 N   0  0  0  0  0  0  0  0  0  0  0  0
    0.0970    0.4558    0.0000 C   0  0  0  0  0  0  0  0  0  0  0  0
   -0.6175    0.8683    0.0000 C   0  0  0  0  0  0  0  0  0  0  0  0
    0.0970   -0.3692    0.0000 C   0  0  0  0  0  0  0  0  0  0  0  0
   -1.3319    0.4558    0.0000 C   0  0  0  0  0  0  0  0  0  0  0  0
   -1.3319   -0.3692    0.0000 C   0  0  0  0  0  0  0  0  0  0  0  0
    0.8816   -0.6241    0.0000 C   0  0  0  0  0  0  0  0  0  0  0  0
    0.8816    0.7108    0.0000 C   0  0  0  0  0  0  0  0  0  0  0  0
   -0.6175    1.6933    0.0000 C   0  0  0  0  0  0  0  0  0  0  0  0
    1.3665    0.0433    0.0000 C   0  0  0  0  0  0  0  0  0  0  0  0
   -2.0464    0.8683    0.0000 C   0  0  0  0  0  0  0  0  0  0  0  0
   -2.0464   -0.7817    0.0000 C   0  0  0  0  0  0  0  0  0  0  0  0
    1.1366   -1.4087    0.0000 C   0  0  0  0  0  0  0  0  0  0  0  0
   -2.7609    0.4558    0.0000 C   0  0  0  0  0  0  0  0  0  0  0  0
    1.9435   -1.5803    0.0000 C   0  0  0  0  0  0  0  0  0  0  0  0
   -2.7609   -0.3692    0.0000 C   0  0  0  0  0  0  0  0  0  0  0  0
    0.0970    2.9308    0.0000 C   0  0  0  0  0  0  0  0  0  0  0  0
    2.5566   -1.0282    0.0000 C   0  0  0  0  0  0  0  0  0  0  0  0
    0.8115    3.3433    0.0000 C   0  0  0  0  0  0  0  0  0  0  0  0
    3.0996   -2.2477    0.0000 C   0  0  0  0  0  0  0  0  0  0  0  0
    3.2711   -1.4407    0.0000 C   0  0  0  0  0  0  0  0  0  0  0  0
    1.5259    4.5808    0.0000 C   0  0  0  0  0  0  0  0  0  0  0  0
    1.6122    5.4013    0.0000 C   0  0  0  0  0  0  0  0  0  0  0  0
    2.2796    4.2453    0.0000 C   0  0  0  0  0  0  0  0  0  0  0  0
    2.4192    5.5728    0.0000 C   0  0  0  0  0  0  0  0  0  0  0  0
    2.8317    4.8584    0.0000 C   0  0  0  0  0  0  0  0  0  0  0  0
  1 14  1  0
  1 22  1  0
  2 14  2  0
  3 20  1  0
  3 25  1  0
  4 24  2  0
  5  9  2  0
  5 11  1  0
  6 24  1  0
  6 27  1  0
  7  8  2  0
  7  9  1  0
  7 13  1  0
  8 10  1  0
  8 14  1  0
  9 12  1  0
 10 11  1  0
 10 16  2  0
 11 17  2  0
 12 15  1  0
 12 18  2  0
 13 15  1  0
 16 19  1  0
 17 21  1  0
 18 20  1  0
 19 21  2  0
 20 23  2  0
 22 24  1  0
 23 26  1  0
 25 26  2  0
 27 28  1  0
 27 29  1  0
 28 30  1  0
 29 31  1  0
 30 31  1  0
M  END
> <chembl_id>
CHEMBL1467976

> <chembl_pref_name>
None

$$$$
CHEMBL2059286
     RDKit          2D

 36 39  0  0  0  0  0  0  0  0999 V2000
    3.8305  -20.8621    0.0000 C   0  0  0  0  0  0  0  0  0  0  0  0
    3.3897  -21.5591    0.0000 C   0  0  0  0  0  0  0  0  0  0  0  0
    4.2143  -21.5944    0.0000 C   0  0  0  0  0  0  0  0  0  0  0  0
    3.1707  -19.6013    0.0000 C   0  0  0  0  0  0  0  0  0  0  0  0
    3.1356  -20.4258    0.0000 C   0  0  0  0  0  0  0  0  0  0  0  0
    3.9005  -19.2130    0.0000 C   0  0  0  0  0  0  0  0  0  0  0  0
    4.5951  -19.6617    0.0000 C   0  0  0  0  0  0  0  0  0  0  0  0
    4.5610  -20.4863    0.0000 C   0  0  0  0  0  0  0  0  0  0  0  0
    5.2549  -20.9236    0.0000 C   0  0  0  0  0  0  0  0  0  0  0  0
    5.9870  -20.5450    0.0000 C   0  0  0  0  0  0  0  0  0  0  0  0
    5.3228  -19.2744    0.0000 C   0  0  0  0  0  0  0  0  0  0  0  0
    6.0191  -19.7188    0.0000 C   0  0  0  0  0  0  0  0  0  0  0  0
    6.0877  -18.0743    0.0000 C   0  0  0  0  0  0  0  0  0  0  0  0
    5.3541  -18.4529    0.0000 C   0  0  0  0  0  0  0  0  0  0  0  0
    6.7840  -18.5146    0.0000 C   0  0  0  0  0  0  0  0  0  0  0  0
    6.7504  -19.3385    0.0000 C   0  0  0  0  0  0  0  0  0  0  0  0
    7.5240  -19.6280    0.0000 C   0  0  0  0  0  0  0  0  0  0  0  0
    8.0331  -18.9803    0.0000 C   0  0  0  0  0  0  0  0  0  0  0  0
    7.5782  -18.2932    0.0000 C   0  0  0  0  0  0  0  0  0  0  0  0
    4.5219  -21.3066    0.0000 H   0  0  0  0  0  0  0  0  0  0  0  0
    4.6227  -18.8369    0.0000 C   0  0  0  0  0  0  0  0  0  0  0  0
    6.0482  -18.8933    0.0000 H   0  0  0  0  0  0  0  0  0  0  0  0
    6.7082  -20.1624    0.0000 C   0  0  0  0  0  0  0  0  0  0  0  0
    6.8133  -17.6888    0.0000 C   0  0  0  0  0  0  0  0  0  0  0  0
    7.5937  -17.4672    0.0000 C   0  0  0  0  0  0  0  0  0  0  0  0
    8.3161  -17.0693    0.0000 C   0  0  0  0  0  0  0  0  0  0  0  0
    6.8858  -17.0401    0.0000 C   0  0  0  0  0  0  0  0  0  0  0  0
    9.0198  -17.4923    0.0000 C   0  0  0  0  0  0  0  0  0  0  0  0
    9.7392  -17.0945    0.0000 C   0  0  0  0  0  0  0  0  0  0  0  0
   10.4502  -17.5174    0.0000 C   0  0  0  0  0  0  0  0  0  0  0  0
   11.1726  -17.1195    0.0000 C   0  0  0  0  0  0  0  0  0  0  0  0
   10.4357  -18.3426    0.0000 C   0  0  0  0  0  0  0  0  0  0  0  0
    8.3663  -18.0514    0.0000 H   0  0  0  0  0  0  0  0  0  0  0  0
   10.2078  -16.4123    0.0000 C   0  0  0  0  0  0  0  0  0  0  0  0
    2.4041  -20.8067    0.0000 O   0  0  0  0  0  0  0  0  0  0  0  0
    9.3005  -16.3869    0.0000 C   0  0  0  0  0  0  0  0  0  0  0  0
  2  1  1  0
  1  3  1  0
 16 17  1  0
 17 18  1  0
 18 19  1  0
 19 15  1  0
  7 11  1  0
  8 20  1  6
  8  9  1  0
  7 21  1  1
  9 10  1  0
 12 22  1  1
 10 12  1  0
 16 23  1  6
 11 12  1  0
 15 24  1  1
  4  6  1  0
 19 25  1  0
  5  1  1  0
 25 26  1  0
  1  8  1  0
 25 27  1  6
  7  6  1  0
 26 28  1  0
 11 14  2  0
 28 29  1  0
 12 16  1  0
 29 30  1  0
 15 13  1  0
 30 31  2  0
 13 14  1  0
 30 32  1  0
 15 16  1  0
 19 33  1  6
  7  8  1  0
 29 34  1  0
  4  5  1  0
  5 35  2  0
 29 36  1  0
M  END
> <chembl_id>
CHEMBL2059286

> <chembl_pref_name>
None

$$$$
CHEMBL1813566
     RDKit          2D

 60 64  0  0  0  0  0  0  0  0999 V2000
   10.0502   -7.6664    0.0000 O   0  0  0  0  0  0  0  0  0  0  0  0
    9.2461   -7.4538    0.0000 S   0  0  0  0  0  0  0  0  0  0  0  0
    9.4651   -8.2572    0.0000 O   0  0  0  0  0  0  0  0  0  0  0  0
    5.9989   -4.3005    0.0000 O   0  0  0  0  0  0  0  0  0  0  0  0
    5.2839   -3.8789    0.0000 C   0  0  0  0  0  0  0  0  0  0  0  0
    3.8642   -3.0506    0.0000 N   0  0  0  0  0  0  0  0  0  0  0  0
    3.8625   -3.8799    0.0000 C   0  0  0  0  0  0  0  0  0  0  0  0
    4.5766   -4.2879    0.0000 C   0  0  0  0  0  0  0  0  0  0  0  0
    4.5842   -2.6384    0.0000 C   0  0  0  0  0  0  0  0  0  0  0  0
    5.2929   -3.0545    0.0000 C   0  0  0  0  0  0  0  0  0  0  0  0
    6.0004   -2.6459    0.0000 C   0  0  0  0  0  0  0  0  0  0  0  0
    6.0058   -1.8267    0.0000 C   0  0  0  0  0  0  0  0  0  0  0  0
    5.2909   -1.4173    0.0000 C   0  0  0  0  0  0  0  0  0  0  0  0
    4.5831   -1.8194    0.0000 C   0  0  0  0  0  0  0  0  0  0  0  0
    5.2886   -0.5892    0.0000 O   0  0  0  0  0  0  0  0  0  0  0  0
    6.0038   -0.1753    0.0000 C   0  0  0  0  0  0  0  0  0  0  0  0
    3.1495   -4.2919    0.0000 C   0  0  0  0  0  0  0  0  0  0  0  0
    2.4378   -3.8743    0.0000 C   0  0  0  0  0  0  0  0  0  0  0  0
    1.7217   -4.2911    0.0000 C   0  0  0  0  0  0  0  0  0  0  0  0
    1.7207   -5.1148    0.0000 C   0  0  0  0  0  0  0  0  0  0  0  0
    2.4392   -5.5264    0.0000 C   0  0  0  0  0  0  0  0  0  0  0  0
    3.1506   -5.1127    0.0000 C   0  0  0  0  0  0  0  0  0  0  0  0
    5.9958   -5.1244    0.0000 C   0  0  0  0  0  0  0  0  0  0  0  0
    5.2776   -5.5273    0.0000 C   0  0  0  0  0  0  0  0  0  0  0  0
    5.2737   -6.3536    0.0000 C   0  0  0  0  0  0  0  0  0  0  0  0
    5.9874   -6.7650    0.0000 C   0  0  0  0  0  0  0  0  0  0  0  0
    6.7045   -6.3509    0.0000 C   0  0  0  0  0  0  0  0  0  0  0  0
    6.7065   -5.5321    0.0000 C   0  0  0  0  0  0  0  0  0  0  0  0
    5.9805   -7.5931    0.0000 C   0  0  0  0  0  0  0  0  0  0  0  0
    4.5544   -7.5875    0.0000 C   0  0  0  0  0  0  0  0  0  0  0  0
    3.8401   -7.9976    0.0000 C   0  0  0  0  0  0  0  0  0  0  0  0
    4.5571   -6.7637    0.0000 O   0  0  0  0  0  0  0  0  0  0  0  0
    3.8331   -8.8215    0.0000 C   0  0  0  0  0  0  0  0  0  0  0  0
    3.1166   -9.2338    0.0000 C   0  0  0  0  0  0  0  0  0  0  0  0
    4.5469   -9.2394    0.0000 C   0  0  0  0  0  0  0  0  0  0  0  0
    3.8273   -9.6477    0.0000 C   0  0  0  0  0  0  0  0  0  0  0  0
    6.6942   -8.0068    0.0000 C   0  0  0  0  0  0  0  0  0  0  0  0
    7.4108   -7.5944    0.0000 O   0  0  0  0  0  0  0  0  0  0  0  0
    7.4076   -9.2486    0.0000 C   0  0  0  0  0  0  0  0  0  0  0  0
    7.4006  -10.0767    0.0000 C   0  0  0  0  0  0  0  0  0  0  0  0
    8.1241   -8.8362    0.0000 C   0  0  0  0  0  0  0  0  0  0  0  0
    8.1167  -10.4904    0.0000 C   0  0  0  0  0  0  0  0  0  0  0  0
    8.1140  -11.3142    0.0000 C   0  0  0  0  0  0  0  0  0  0  0  0
    8.8337   -9.2542    0.0000 O   0  0  0  0  0  0  0  0  0  0  0  0
    7.1806   -4.8642    0.0000 C   0  0  0  0  0  0  0  0  0  0  0  0
    8.0168   -4.8596    0.0000 C   0  0  0  0  0  0  0  0  0  0  0  0
    8.4350   -5.5812    0.0000 C   0  0  0  0  0  0  0  0  0  0  0  0
    9.2676   -5.5766    0.0000 C   0  0  0  0  0  0  0  0  0  0  0  0
    9.7394   -6.3980    0.0000 C   0  0  0  0  0  0  0  0  0  0  0  0
    2.4012   -8.0022    0.0000 C   0  0  0  0  0  0  0  0  0  0  0  0
    2.4025   -8.8330    0.0000 O   0  0  0  0  0  0  0  0  0  0  0  0
    1.6744   -7.5850    0.0000 O   0  0  0  0  0  0  0  0  0  0  0  0
    0.9479   -8.0035    0.0000 C   0  0  0  0  0  0  0  0  0  0  0  0
    0.2284   -7.5851    0.0000 C   0  0  0  0  0  0  0  0  0  0  0  0
    0.9479   -8.8330    0.0000 C   0  0  0  0  0  0  0  0  0  0  0  0
    0.2329   -8.4302    0.0000 C   0  0  0  0  0  0  0  0  0  0  0  0
    5.2662   -7.9990    0.0000 N   0  0  0  0  0  0  0  0  0  0  0  0
    3.1240   -7.5862    0.0000 N   0  0  0  0  0  0  0  0  0  0  0  0
    6.6938   -8.8349    0.0000 N   0  0  0  0  0  0  0  0  0  0  0  0
    8.1158   -7.7385    0.0000 N   0  0  0  0  0  0  0  0  0  0  0  0
  5 10  2  0
  9  6  2  0
  6  7  1  0
  7  8  2  0
  8  5  1  0
  9 10  1  0
 10 11  1  0
 11 12  2  0
 12 13  1  0
 13 14  2  0
 14  9  1  0
 13 15  1  0
 15 16  1  0
  7 17  1  0
 17 18  2  0
 18 19  1  0
 19 20  2  0
 20 21  1  0
 21 22  2  0
 22 17  1  0
  4 23  1  0
 23 24  2  0
 24 25  1  0
 25 26  2  0
 26 27  1  0
 27 28  2  0
 28 23  1  0
 29 26  1  0
 29 57  1  1
 57 30  1  0
 30 31  1  0
 30 32  2  0
 31 58  1  0
 31 33  1  6
 33 34  1  0
 33 35  1  0
 33 36  1  0
 29 37  1  0
 37 59  1  0
 37 38  2  0
 59 39  1  0
 39 40  1  6
 39 41  1  0
 40 42  1  0
 42 43  1  0
 41 44  2  0
 41 60  1  0
 60  2  1  0
 28 45  1  0
 45 46  2  0
 46 47  1  0
 47 48  1  0
  2 49  1  0
 49 48  1  0
 58 50  1  0
 50 51  2  0
 50 52  1  0
 52 53  1  0
 53 54  1  0
 53 55  1  0
 53 56  1  0
  2  1  2  0
  3  2  2  0
  4  5  1  0
M  END
> <chembl_id>
CHEMBL1813566

> <chembl_pref_name>
None

$$$$
CHEMBL4556570
     RDKit          2D

 15 17  0  0  0  0  0  0  0  0999 V2000
    4.1381  -15.1420    0.0000 N   0  0  0  0  0  0  0  0  0  0  0  0
    3.4751  -14.6599    0.0000 N   0  0  0  0  0  0  0  0  0  0  0  0
    2.8164  -15.1420    0.0000 C   0  0  0  0  0  0  0  0  0  0  0  0
    3.8837  -15.9188    0.0000 C   0  0  0  0  0  0  0  0  0  0  0  0
    3.0665  -15.9188    0.0000 N   0  0  0  0  0  0  0  0  0  0  0  0
    2.8139  -16.6960    0.0000 N   0  0  0  0  0  0  0  0  0  0  0  0
    3.4751  -17.1764    0.0000 C   0  0  0  0  0  0  0  0  0  0  0  0
    4.1361  -16.6960    0.0000 S   0  0  0  0  0  0  0  0  0  0  0  0
    3.4751  -17.9935    0.0000 C   0  0  0  0  0  0  0  0  0  0  0  0
    2.7677  -18.3988    0.0000 C   0  0  0  0  0  0  0  0  0  0  0  0
    2.7674  -19.2153    0.0000 C   0  0  0  0  0  0  0  0  0  0  0  0
    3.4756  -19.6247    0.0000 C   0  0  0  0  0  0  0  0  0  0  0  0
    4.1857  -19.2116    0.0000 C   0  0  0  0  0  0  0  0  0  0  0  0
    4.1825  -18.3966    0.0000 C   0  0  0  0  0  0  0  0  0  0  0  0
    4.8882  -17.9846    0.0000 N   0  0  0  0  0  0  0  0  0  0  0  0
  4  1  2  0
  1  2  1  0
  2  3  2  0
  3  5  1  0
  4  5  1  0
  5  6  1  0
  6  7  2  0
  7  8  1  0
  8  4  1  0
  7  9  1  0
  9 10  2  0
 10 11  1  0
 11 12  2  0
 12 13  1  0
 13 14  2  0
 14  9  1  0
 14 15  1  0
M  END
> <chembl_id>
CHEMBL4556570

> <chembl_pref_name>
None

$$$$
CHEMBL54127
     RDKit          2D

 17 18  0  0  0  0  0  0  0  0999 V2000
    0.7917   -4.7125    0.0000 N   0  0  0  0  0  0  0  0  0  0  0  0
    1.3167   -4.4125    0.0000 C   0  0  0  0  0  0  0  0  0  0  0  0
    0.2792   -4.4125    0.0000 C   0  0  0  0  0  0  0  0  0  0  0  0
    0.2792   -3.8125    0.0000 N   0  0  0  0  0  0  0  0  0  0  0  0
    1.3167   -3.8042    0.0000 C   0  0  0  0  0  0  0  0  0  0  0  0
    0.7917   -3.5042    0.0000 C   0  0  0  0  0  0  0  0  0  0  0  0
    1.8375   -4.7125    0.0000 N   0  0  0  0  0  0  0  0  0  0  0  0
    2.8667   -3.5042    0.0000 C   0  0  0  0  0  0  0  0  0  0  0  0
    2.3500   -3.8125    0.0000 C   0  0  0  0  0  0  0  0  0  0  0  0
    2.3542   -4.4042    0.0000 C   0  0  0  0  0  0  0  0  0  0  0  0
    3.3917   -3.8042    0.0000 C   0  0  0  0  0  0  0  0  0  0  0  0
    0.7917   -2.9042    0.0000 O   0  0  0  0  0  0  0  0  0  0  0  0
   -0.2458   -4.7125    0.0000 N   0  0  0  0  0  0  0  0  0  0  0  0
    3.3917   -4.4042    0.0000 C   0  0  0  0  0  0  0  0  0  0  0  0
    2.8625   -2.9042    0.0000 Cl  0  0  0  0  0  0  0  0  0  0  0  0
    2.8750   -4.7042    0.0000 C   0  0  0  0  0  0  0  0  0  0  0  0
    3.9042   -3.4917    0.0000 Cl  0  0  0  0  0  0  0  0  0  0  0  0
  2  1  2  0
  3  1  1  0
  4  3  2  0
  5  2  1  0
  6  4  1  0
  7  2  1  0
  8  9  2  0
  9 10  1  0
 10  7  1  0
 11 14  2  0
 12  6  1  0
 13  3  1  0
 14 16  1  0
 15  8  1  0
 16 10  2  0
 17 11  1  0
  6  5  2  0
 11  8  1  0
M  END
> <chembl_id>
CHEMBL54127

> <chembl_pref_name>
None

$$$$
CHEMBL4104767
     RDKit          2D

 41 43  0  0  0  0  0  0  0  0999 V2000
   37.2813   -4.6638    0.0000 O   0  0  0  0  0  0  0  0  0  0  0  0
   36.8768   -3.9580    0.0000 S   0  0  0  0  0  0  0  0  0  0  0  0
   36.4678   -4.6612    0.0000 O   0  0  0  0  0  0  0  0  0  0  0  0
   27.9826   -1.5972    0.0000 O   0  0  0  0  0  0  0  0  0  0  0  0
   28.3953   -2.3071    0.0000 S   0  0  0  0  0  0  0  0  0  0  0  0
   28.8037   -1.5948    0.0000 O   0  0  0  0  0  0  0  0  0  0  0  0
   30.5209   -2.7198    0.0000 C   0  0  0  0  0  0  0  0  0  0  0  0
   31.2286   -2.3112    0.0000 C   0  0  0  0  0  0  0  0  0  0  0  0
   31.9363   -2.7198    0.0000 N   0  0  0  0  0  0  0  0  0  0  0  0
   29.8131   -2.3112    0.0000 C   0  0  0  0  0  0  0  0  0  0  0  0
   29.1054   -2.7198    0.0000 N   0  0  0  0  0  0  0  0  0  0  0  0
   27.6900   -2.7198    0.0000 C   0  0  0  0  0  0  0  0  0  0  0  0
   26.9830   -2.3079    0.0000 C   0  0  0  0  0  0  0  0  0  0  0  0
   26.2758   -2.7159    0.0000 C   0  0  0  0  0  0  0  0  0  0  0  0
   26.2753   -3.5339    0.0000 C   0  0  0  0  0  0  0  0  0  0  0  0
   26.9880   -3.9424    0.0000 C   0  0  0  0  0  0  0  0  0  0  0  0
   27.6923   -3.5321    0.0000 C   0  0  0  0  0  0  0  0  0  0  0  0
   31.9300   -3.5335    0.0000 C   0  0  0  0  0  0  0  0  0  0  0  0
   32.6337   -3.9420    0.0000 C   0  0  0  0  0  0  0  0  0  0  0  0
   33.3438   -3.5368    0.0000 N   0  0  0  0  0  0  0  0  0  0  0  0
   33.3458   -2.7187    0.0000 C   0  0  0  0  0  0  0  0  0  0  0  0
   32.6376   -2.3057    0.0000 C   0  0  0  0  0  0  0  0  0  0  0  0
   34.0500   -3.9481    0.0000 C   0  0  0  0  0  0  0  0  0  0  0  0
   34.0469   -4.7653    0.0000 O   0  0  0  0  0  0  0  0  0  0  0  0
   34.7592   -3.5422    0.0000 C   0  0  0  0  0  0  0  0  0  0  0  0
   35.4654   -3.9535    0.0000 C   0  0  0  0  0  0  0  0  0  0  0  0
   36.1746   -3.5475    0.0000 N   0  0  0  0  0  0  0  0  0  0  0  0
   37.5900   -3.5529    0.0000 C   0  0  0  0  0  0  0  0  0  0  0  0
   38.2931   -3.9647    0.0000 C   0  0  0  0  0  0  0  0  0  0  0  0
   39.0019   -3.5594    0.0000 C   0  0  0  0  0  0  0  0  0  0  0  0
   39.0054   -2.7414    0.0000 C   0  0  0  0  0  0  0  0  0  0  0  0
   38.2943   -2.3302    0.0000 C   0  0  0  0  0  0  0  0  0  0  0  0
   37.5884   -2.7378    0.0000 C   0  0  0  0  0  0  0  0  0  0  0  0
   25.5682   -3.9435    0.0000 C   0  0  0  0  0  0  0  0  0  0  0  0
   24.8599   -3.5358    0.0000 C   0  0  0  0  0  0  0  0  0  0  0  0
   25.5692   -4.7607    0.0000 C   0  0  0  0  0  0  0  0  0  0  0  0
   24.8542   -4.3460    0.0000 C   0  0  0  0  0  0  0  0  0  0  0  0
   39.7141   -2.3345    0.0000 C   0  0  0  0  0  0  0  0  0  0  0  0
   40.4208   -2.7448    0.0000 C   0  0  0  0  0  0  0  0  0  0  0  0
   39.7161   -1.5173    0.0000 C   0  0  0  0  0  0  0  0  0  0  0  0
   40.4179   -1.9192    0.0000 C   0  0  0  0  0  0  0  0  0  0  0  0
  2  1  2  0
  3  2  2  0
  5  4  2  0
  6  5  2  0
  7  8  1  0
  8  9  1  0
  7 10  1  0
 10 11  1  0
 11  5  1  0
  5 12  1  0
 12 13  2  0
 13 14  1  0
 14 15  2  0
 15 16  1  0
 16 17  2  0
 17 12  1  0
  9 18  1  0
  9 22  1  0
 18 19  1  0
 19 20  1  0
 20 21  1  0
 21 22  1  0
 20 23  1  0
 23 24  2  0
 23 25  1  0
 25 26  1  0
 26 27  1  0
 27  2  1  0
  2 28  1  0
 28 29  2  0
 29 30  1  0
 30 31  2  0
 31 32  1  0
 32 33  2  0
 33 28  1  0
 15 34  1  0
 34 35  1  0
 34 36  1  0
 34 37  1  0
 31 38  1  0
 38 39  1  0
 38 40  1  0
 38 41  1  0
M  END
> <chembl_id>
CHEMBL4104767

> <chembl_pref_name>
None

$$$$
CHEMBL551529
     RDKit          2D

 32 36  0  0  0  0  0  0  0  0999 V2000
    0.7268   -9.1914    0.0000 C   0  0  0  0  0  0  0  0  0  0  0  0
    0.0123   -8.7789    0.0000 C   0  0  0  0  0  0  0  0  0  0  0  0
   -0.7021   -9.1914    0.0000 C   0  0  0  0  0  0  0  0  0  0  0  0
    0.7268  -10.0164    0.0000 C   0  0  0  0  0  0  0  0  0  0  0  0
    0.0123  -10.4289    0.0000 C   0  0  0  0  0  0  0  0  0  0  0  0
   -0.7021  -10.0164    0.0000 C   0  0  0  0  0  0  0  0  0  0  0  0
   -1.4166  -10.4289    0.0000 O   0  0  0  0  0  0  0  0  0  0  0  0
   -1.4166  -11.2539    0.0000 C   0  0  0  0  0  0  0  0  0  0  0  0
   -0.7021  -11.6664    0.0000 C   0  0  0  0  0  0  0  0  0  0  0  0
    0.0123  -11.2539    0.0000 C   0  0  0  0  0  0  0  0  0  0  0  0
   -2.1311  -11.6664    0.0000 C   0  0  0  0  0  0  0  0  0  0  0  0
   -2.1311  -12.4914    0.0000 C   0  0  0  0  0  0  0  0  0  0  0  0
   -2.8456  -12.9039    0.0000 C   0  0  0  0  0  0  0  0  0  0  0  0
   -2.8456  -11.2539    0.0000 C   0  0  0  0  0  0  0  0  0  0  0  0
   -0.7021  -12.4914    0.0000 O   0  0  0  0  0  0  0  0  0  0  0  0
    0.7268  -11.6664    0.0000 O   0  0  0  0  0  0  0  0  0  0  0  0
    1.4413  -10.4289    0.0000 O   0  0  0  0  0  0  0  0  0  0  0  0
    0.0123   -7.9539    0.0000 O   0  0  0  0  0  0  0  0  0  0  0  0
    0.7268   -7.5414    0.0000 C   0  0  0  0  0  0  0  0  0  0  0  0
    0.7268   -6.7164    0.0000 C   0  0  0  0  0  0  0  0  0  0  0  0
    0.0123   -6.3039    0.0000 C   0  0  0  0  0  0  0  0  0  0  0  0
    0.0123   -5.4789    0.0000 C   0  0  0  0  0  0  0  0  0  0  0  0
    0.7268   -5.0664    0.0000 C   0  0  0  0  0  0  0  0  0  0  0  0
    1.4413   -5.4789    0.0000 C   0  0  0  0  0  0  0  0  0  0  0  0
    1.4413   -6.3039    0.0000 C   0  0  0  0  0  0  0  0  0  0  0  0
    2.1557   -5.0664    0.0000 C   0  0  0  0  0  0  0  0  0  0  0  0
    2.8702   -4.6539    0.0000 N   0  0  0  0  0  0  0  0  0  0  0  0
   -3.5600  -11.6664    0.0000 C   0  0  0  0  0  0  0  0  0  0  0  0
   -3.5600  -12.4914    0.0000 C   0  0  0  0  0  0  0  0  0  0  0  0
   -4.3447  -12.7463    0.0000 O   0  0  0  0  0  0  0  0  0  0  0  0
   -4.8296  -12.0789    0.0000 C   0  0  0  0  0  0  0  0  0  0  0  0
   -4.3447  -11.4115    0.0000 O   0  0  0  0  0  0  0  0  0  0  0  0
  1  2  2  0
  9 15  1  0
  5  4  2  0
 10 16  2  0
  4  1  1  0
  4 17  1  0
  5 10  1  0
  2 18  1  0
  6  7  1  0
 18 19  1  0
  7  8  1  0
 19 20  1  0
  8  9  2  0
 20 21  2  0
  9 10  1  0
 21 22  1  0
  5  6  1  0
 22 23  2  0
  8 11  1  0
 23 24  1  0
 24 25  2  0
 25 20  1  0
 11 12  2  0
  2  3  1  0
 26 27  3  0
 24 26  1  0
 28 29  1  0
 12 13  1  0
 13 29  2  0
  3  6  2  0
 28 14  2  0
 14 11  1  0
 29 30  1  0
 30 31  1  0
 31 32  1  0
 32 28  1  0
M  END
> <chembl_id>
CHEMBL551529

> <chembl_pref_name>
None

$$$$
CHEMBL4450465
     RDKit          2D

 22 25  0  0  0  0  0  0  0  0999 V2000
    4.3984  -14.0100    0.0000 S   0  0  0  0  0  0  0  0  0  0  0  0
    4.8972  -13.3626    0.0000 C   0  0  0  0  0  0  0  0  0  0  0  0
    4.4330  -12.6870    0.0000 N   0  0  0  0  0  0  0  0  0  0  0  0
    3.6280  -13.7375    0.0000 C   0  0  0  0  0  0  0  0  0  0  0  0
    3.6512  -12.9228    0.0000 C   0  0  0  0  0  0  0  0  0  0  0  0
    2.9584  -12.4972    0.0000 C   0  0  0  0  0  0  0  0  0  0  0  0
    2.2419  -12.8851    0.0000 C   0  0  0  0  0  0  0  0  0  0  0  0
    2.2226  -13.7029    0.0000 N   0  0  0  0  0  0  0  0  0  0  0  0
    2.9161  -14.1249    0.0000 C   0  0  0  0  0  0  0  0  0  0  0  0
    5.7109  -13.3862    0.0000 C   0  0  0  0  0  0  0  0  0  0  0  0
    6.0995  -14.1064    0.0000 C   0  0  0  0  0  0  0  0  0  0  0  0
    6.9156  -14.1290    0.0000 C   0  0  0  0  0  0  0  0  0  0  0  0
    7.3441  -13.4322    0.0000 C   0  0  0  0  0  0  0  0  0  0  0  0
    6.9507  -12.7112    0.0000 C   0  0  0  0  0  0  0  0  0  0  0  0
    6.1358  -12.6921    0.0000 C   0  0  0  0  0  0  0  0  0  0  0  0
    5.7447  -11.9746    0.0000 O   0  0  0  0  0  0  0  0  0  0  0  0
    6.1705  -11.2771    0.0000 C   0  0  0  0  0  0  0  0  0  0  0  0
    6.9869  -11.3001    0.0000 C   0  0  0  0  0  0  0  0  0  0  0  0
    7.4126  -10.6035    0.0000 C   0  0  0  0  0  0  0  0  0  0  0  0
    7.0215   -9.8850    0.0000 C   0  0  0  0  0  0  0  0  0  0  0  0
    6.2002   -9.8675    0.0000 C   0  0  0  0  0  0  0  0  0  0  0  0
    5.7782  -10.5648    0.0000 C   0  0  0  0  0  0  0  0  0  0  0  0
  4  1  1  0
  1  2  1  0
  2  3  2  0
  3  5  1  0
  4  5  2  0
  5  6  1  0
  6  7  2  0
  7  8  1  0
  8  9  2  0
  9  4  1  0
 10 11  2  0
 11 12  1  0
 12 13  2  0
 13 14  1  0
 14 15  2  0
 15 10  1  0
  2 10  1  0
 15 16  1  0
 16 17  1  0
 17 18  2  0
 18 19  1  0
 19 20  2  0
 20 21  1  0
 21 22  2  0
 22 17  1  0
M  END
> <chembl_id>
CHEMBL4450465

> <chembl_pref_name>
None

$$$$
CHEMBL1254602
     RDKit          2D

 27 30  0  0  0  0  0  0  0  0999 V2000
   -1.8235  -22.0242    0.0000 C   0  0  0  0  0  0  0  0  0  0  0  0
   -2.6732  -22.0461    0.0000 C   0  0  0  0  0  0  0  0  0  0  0  0
   -3.1497  -22.6947    0.0000 C   0  0  0  0  0  0  0  0  0  0  0  0
   -1.3022  -22.6706    0.0000 C   0  0  0  0  0  0  0  0  0  0  0  0
   -1.4907  -23.4690    0.0000 C   0  0  0  0  0  0  0  0  0  0  0  0
   -2.2658  -23.8349    0.0000 C   0  0  0  0  0  0  0  0  0  0  0  0
   -2.9732  -23.4852    0.0000 C   0  0  0  0  0  0  0  0  0  0  0  0
   -3.0552  -21.3149    0.0000 O   0  0  0  0  0  0  0  0  0  0  0  0
   -1.4775  -21.2752    0.0000 O   0  0  0  0  0  0  0  0  0  0  0  0
   -0.4772  -22.6693    0.0000 C   0  0  0  0  0  0  0  0  0  0  0  0
   -0.0630  -23.3831    0.0000 N   0  0  0  0  0  0  0  0  0  0  0  0
   -3.9734  -22.7304    0.0000 C   0  0  0  0  0  0  0  0  0  0  0  0
   -4.4169  -22.0347    0.0000 N   0  0  0  0  0  0  0  0  0  0  0  0
   -2.2733  -24.6598    0.0000 C   0  0  0  0  0  0  0  0  0  0  0  0
   -2.9914  -25.0659    0.0000 N   0  0  0  0  0  0  0  0  0  0  0  0
   -0.2785  -24.1787    0.0000 C   0  0  0  0  0  0  0  0  0  0  0  0
    0.4102  -24.6330    0.0000 C   0  0  0  0  0  0  0  0  0  0  0  0
    1.0551  -24.1183    0.0000 C   0  0  0  0  0  0  0  0  0  0  0  0
    0.7648  -23.3462    0.0000 C   0  0  0  0  0  0  0  0  0  0  0  0
   -3.7729  -24.7931    0.0000 C   0  0  0  0  0  0  0  0  0  0  0  0
   -4.2753  -25.4476    0.0000 C   0  0  0  0  0  0  0  0  0  0  0  0
   -3.8080  -26.1276    0.0000 C   0  0  0  0  0  0  0  0  0  0  0  0
   -3.0171  -25.8933    0.0000 C   0  0  0  0  0  0  0  0  0  0  0  0
   -4.1655  -21.2455    0.0000 C   0  0  0  0  0  0  0  0  0  0  0  0
   -4.8341  -20.7621    0.0000 C   0  0  0  0  0  0  0  0  0  0  0  0
   -5.5004  -21.2487    0.0000 C   0  0  0  0  0  0  0  0  0  0  0  0
   -5.2436  -22.0326    0.0000 C   0  0  0  0  0  0  0  0  0  0  0  0
  7  3  2  0
  6 14  1  0
  4  5  1  0
 14 15  1  0
 11 16  1  0
  2  8  2  0
  1  2  1  0
  1  9  1  0
 16 17  1  0
 17 18  1  0
 18 19  1  0
 19 11  1  0
 15 20  1  0
  2  3  1  0
  4 10  1  0
  1  4  2  0
 10 11  1  0
 20 21  1  0
 21 22  1  0
 22 23  1  0
 23 15  1  0
 13 24  1  0
  5  6  2  0
  3 12  1  0
  6  7  1  0
 12 13  1  0
 24 25  1  0
 25 26  1  0
 26 27  1  0
 27 13  1  0
M  END
> <chembl_id>
CHEMBL1254602

> <chembl_pref_name>
None

$$$$
CHEMBL4755354
     RDKit          2D

 23 24  0  0  0  0  0  0  0  0999 V2000
   13.5491  -11.4338    0.0000 N   0  0  0  0  0  0  0  0  0  0  0  0
   13.5480  -12.2612    0.0000 C   0  0  0  0  0  0  0  0  0  0  0  0
   14.2628  -12.6741    0.0000 C   0  0  0  0  0  0  0  0  0  0  0  0
   14.9793  -12.2607    0.0000 C   0  0  0  0  0  0  0  0  0  0  0  0
   14.2610  -11.0210    0.0000 C   0  0  0  0  0  0  0  0  0  0  0  0
   14.9727  -11.4319    0.0000 C   0  0  0  0  0  0  0  0  0  0  0  0
   15.6824  -11.0211    0.0000 C   0  0  0  0  0  0  0  0  0  0  0  0
   15.6815  -10.1995    0.0000 C   0  0  0  0  0  0  0  0  0  0  0  0
   14.9651   -9.7905    0.0000 C   0  0  0  0  0  0  0  0  0  0  0  0
   14.2584  -10.2036    0.0000 C   0  0  0  0  0  0  0  0  0  0  0  0
   15.6953  -12.6705    0.0000 C   0  0  0  0  0  0  0  0  0  0  0  0
   15.6985  -13.4955    0.0000 O   0  0  0  0  0  0  0  0  0  0  0  0
   16.4083  -12.2553    0.0000 N   0  0  0  0  0  0  0  0  0  0  0  0
   17.1244  -12.6651    0.0000 C   0  0  0  0  0  0  0  0  0  0  0  0
   17.8373  -12.2499    0.0000 C   0  0  0  0  0  0  0  0  0  0  0  0
   18.5534  -12.6597    0.0000 N   0  0  0  0  0  0  0  0  0  0  0  0
   12.8339  -12.6714    0.0000 O   0  0  0  0  0  0  0  0  0  0  0  0
   12.1203  -12.2572    0.0000 C   0  0  0  0  0  0  0  0  0  0  0  0
   11.4049  -12.6682    0.0000 C   0  0  0  0  0  0  0  0  0  0  0  0
   10.6912  -12.2541    0.0000 C   0  0  0  0  0  0  0  0  0  0  0  0
    9.9758  -12.6650    0.0000 C   0  0  0  0  0  0  0  0  0  0  0  0
   19.2663  -12.2444    0.0000 C   0  0  0  0  0  0  0  0  0  0  0  0
   18.5566  -13.4847    0.0000 C   0  0  0  0  0  0  0  0  0  0  0  0
  1  2  2  0
  2  3  1  0
  3  4  2  0
  4  6  1  0
  5  1  1  0
  5  6  1  0
  6  7  2  0
  7  8  1  0
  8  9  2  0
  9 10  1  0
 10  5  2  0
  4 11  1  0
 11 12  2  0
 11 13  1  0
 13 14  1  0
 14 15  1  0
 15 16  1  0
  2 17  1  0
 17 18  1  0
 18 19  1  0
 19 20  1  0
 20 21  1  0
 16 22  1  0
 16 23  1  0
M  END
> <chembl_id>
CHEMBL4755354

> <chembl_pref_name>
None

$$$$
CHEMBL1610408
     RDKit          2D

 36 40  0  0  0  0  0  0  0  0999 V2000
    0.3202    1.9365    0.0000 S   0  0  0  0  0  0  0  0  0  0  0  0
   -0.9898    4.2053    0.0000 O   0  0  0  0  0  0  0  0  0  0  0  0
   -2.7454    3.8322    0.0000 O   0  0  0  0  0  0  0  0  0  0  0  0
   -2.9330    1.2222    0.0000 O   0  0  0  0  0  0  0  0  0  0  0  0
   -5.7909    2.0472    0.0000 O   0  0  0  0  0  0  0  0  0  0  0  0
   -5.7909    3.6972    0.0000 O   0  0  0  0  0  0  0  0  0  0  0  0
    2.5248    1.8109    0.0000 O   0  0  0  0  0  0  0  0  0  0  0  0
   -0.7788   -1.1038    0.0000 O   0  0  0  0  0  0  0  0  0  0  0  0
   -0.9128    2.7372    0.0000 N   0  0  0  0  0  0  0  0  0  0  0  0
    0.4597    3.2641    0.0000 N   0  0  0  0  0  0  0  0  0  0  0  0
   -1.4649    2.1241    0.0000 C   0  0  0  0  0  0  0  0  0  0  0  0
   -2.2185    2.4597    0.0000 C   0  0  0  0  0  0  0  0  0  0  0  0
   -1.3253    3.4517    0.0000 C   0  0  0  0  0  0  0  0  0  0  0  0
   -2.1323    3.2801    0.0000 C   0  0  0  0  0  0  0  0  0  0  0  0
   -0.0923    2.6510    0.0000 C   0  0  0  0  0  0  0  0  0  0  0  0
   -2.9330    2.0472    0.0000 C   0  0  0  0  0  0  0  0  0  0  0  0
   -1.2933    1.3171    0.0000 C   0  0  0  0  0  0  0  0  0  0  0  0
   -3.6475    2.4597    0.0000 C   0  0  0  0  0  0  0  0  0  0  0  0
    1.1271    2.1080    0.0000 C   0  0  0  0  0  0  0  0  0  0  0  0
    1.2134    2.9285    0.0000 C   0  0  0  0  0  0  0  0  0  0  0  0
   -0.5087    1.0622    0.0000 C   0  0  0  0  0  0  0  0  0  0  0  0
   -1.9064    0.7651    0.0000 C   0  0  0  0  0  0  0  0  0  0  0  0
   -4.3619    2.0472    0.0000 C   0  0  0  0  0  0  0  0  0  0  0  0
   -3.6475    3.2847    0.0000 C   0  0  0  0  0  0  0  0  0  0  0  0
   -5.0764    2.4597    0.0000 C   0  0  0  0  0  0  0  0  0  0  0  0
    1.7402    1.5560    0.0000 C   0  0  0  0  0  0  0  0  0  0  0  0
   -5.0764    3.2847    0.0000 C   0  0  0  0  0  0  0  0  0  0  0  0
   -0.3372    0.2552    0.0000 C   0  0  0  0  0  0  0  0  0  0  0  0
   -1.7349   -0.0419    0.0000 C   0  0  0  0  0  0  0  0  0  0  0  0
   -0.9503   -0.2968    0.0000 C   0  0  0  0  0  0  0  0  0  0  0  0
   -4.3619    3.6972    0.0000 C   0  0  0  0  0  0  0  0  0  0  0  0
    1.9278    3.3410    0.0000 C   0  0  0  0  0  0  0  0  0  0  0  0
    1.5687    0.7490    0.0000 C   0  0  0  0  0  0  0  0  0  0  0  0
   -6.5054    2.4597    0.0000 C   0  0  0  0  0  0  0  0  0  0  0  0
   -6.5054    3.2847    0.0000 C   0  0  0  0  0  0  0  0  0  0  0  0
   -1.3918   -1.6558    0.0000 C   0  0  0  0  0  0  0  0  0  0  0  0
  1 15  1  0
  1 19  1  0
  2 13  2  0
  3 14  1  0
  4 16  2  0
  5 25  1  0
  5 34  1  0
  6 27  1  0
  6 35  1  0
  7 26  2  0
  8 30  1  0
  8 36  1  0
  9 11  1  0
  9 13  1  0
  9 15  1  0
 10 15  2  0
 10 20  1  0
 11 12  1  0
 11 17  1  0
 12 14  2  0
 12 16  1  0
 13 14  1  0
 16 18  1  0
 17 21  2  0
 17 22  1  0
 18 23  1  0
 18 24  2  0
 19 20  2  0
 19 26  1  0
 20 32  1  0
 21 28  1  0
 22 29  2  0
 23 25  2  0
 24 31  1  0
 25 27  1  0
 26 33  1  0
 27 31  2  0
 28 30  2  0
 29 30  1  0
 34 35  1  0
M  END
> <chembl_id>
CHEMBL1610408

> <chembl_pref_name>
None

$$$$
CHEMBL1486503
     RDKit          2D

 21 23  0  0  0  0  0  0  0  0999 V2000
   -3.8845   -0.4007    0.0000 S   0  0  0  0  0  0  0  0  0  0  0  0
   -0.1557   -0.1413    0.0000 O   0  0  0  0  0  0  0  0  0  0  0  0
   -0.9564   -0.5583    0.0000 O   0  0  0  0  0  0  0  0  0  0  0  0
    1.8073   -1.1527    0.0000 O   0  0  0  0  0  0  0  0  0  0  0  0
    0.5019   -1.7339    0.0000 O   0  0  0  0  0  0  0  0  0  0  0  0
   -3.0998    0.6792    0.0000 N   0  0  0  0  0  0  0  0  0  0  0  0
   -2.3854   -0.5583    0.0000 N   0  0  0  0  0  0  0  0  0  0  0  0
   -2.3854    1.9167    0.0000 N   0  0  0  0  0  0  0  0  0  0  0  0
    0.9868   -1.0665    0.0000 N   0  0  0  0  0  0  0  0  0  0  0  0
   -1.6709    0.6792    0.0000 C   0  0  0  0  0  0  0  0  0  0  0  0
   -2.3854    1.0917    0.0000 C   0  0  0  0  0  0  0  0  0  0  0  0
   -3.0998   -0.1458    0.0000 C   0  0  0  0  0  0  0  0  0  0  0  0
   -1.6709   -0.1458    0.0000 C   0  0  0  0  0  0  0  0  0  0  0  0
   -3.8845    0.9341    0.0000 C   0  0  0  0  0  0  0  0  0  0  0  0
   -4.3694    0.2667    0.0000 C   0  0  0  0  0  0  0  0  0  0  0  0
   -0.9564    1.0917    0.0000 C   0  0  0  0  0  0  0  0  0  0  0  0
   -0.2420    0.6792    0.0000 C   0  0  0  0  0  0  0  0  0  0  0  0
    0.6512   -0.3128    0.0000 C   0  0  0  0  0  0  0  0  0  0  0  0
    0.5117    1.0148    0.0000 C   0  0  0  0  0  0  0  0  0  0  0  0
    1.0637    0.4017    0.0000 C   0  0  0  0  0  0  0  0  0  0  0  0
   -5.1944    0.2667    0.0000 C   0  0  0  0  0  0  0  0  0  0  0  0
  1 12  1  0
  1 15  1  0
  2 17  1  0
  2 18  1  0
  3 13  2  0
  4  9  1  0
  5  9  2  0
 11  6  1  0
  6 12  1  0
  6 14  1  0
  7 12  2  0
  7 13  1  0
  8 11  2  0
  9 18  1  0
 10 11  1  0
 10 13  1  0
 10 16  2  0
 14 15  2  0
 15 21  1  0
 16 17  1  0
 17 19  2  0
 18 20  2  0
 19 20  1  0
M  CHG  2   4  -1   9   1
M  END
> <chembl_id>
CHEMBL1486503

> <chembl_pref_name>
None

$$$$
CHEMBL287727
     RDKit          2D

 17 19  0  0  0  0  0  0  0  0999 V2000
    4.1542   -4.7625    0.0000 N   0  0  0  0  0  0  0  0  0  0  0  0
    4.6750   -4.4542    0.0000 C   0  0  0  0  0  0  0  0  0  0  0  0
    4.6667   -3.8542    0.0000 C   0  0  0  0  0  0  0  0  0  0  0  0
    3.6375   -4.4542    0.0000 C   0  0  0  0  0  0  0  0  0  0  0  0
    3.6375   -3.8542    0.0000 N   0  0  0  0  0  0  0  0  0  0  0  0
    4.1542   -3.5542    0.0000 C   0  0  0  0  0  0  0  0  0  0  0  0
    5.2417   -3.6667    0.0000 N   0  0  0  0  0  0  0  0  0  0  0  0
    5.2417   -4.6417    0.0000 N   0  0  0  0  0  0  0  0  0  0  0  0
    5.6000   -4.1542    0.0000 C   0  0  0  0  0  0  0  0  0  0  0  0
    3.3375   -4.9792    0.0000 N   0  0  0  0  0  0  0  0  0  0  0  0
    4.1500   -2.9542    0.0000 O   0  0  0  0  0  0  0  0  0  0  0  0
    2.7375   -4.9792    0.0000 C   0  0  0  0  0  0  0  0  0  0  0  0
    2.4375   -4.4625    0.0000 C   0  0  0  0  0  0  0  0  0  0  0  0
    2.4375   -5.4917    0.0000 C   0  0  0  0  0  0  0  0  0  0  0  0
    1.8375   -4.4625    0.0000 C   0  0  0  0  0  0  0  0  0  0  0  0
    1.8375   -5.4917    0.0000 C   0  0  0  0  0  0  0  0  0  0  0  0
    1.5417   -4.9792    0.0000 C   0  0  0  0  0  0  0  0  0  0  0  0
  2  1  1  0
  3  2  1  0
  4  1  2  0
  5  4  1  0
  6  5  1  0
  7  3  1  0
  8  2  2  0
  9  8  1  0
 10  4  1  0
 11  6  1  0
 12 10  1  0
 13 12  2  0
 14 12  1  0
 15 13  1  0
 16 14  2  0
 17 16  1  0
  3  6  2  0
  9  7  2  0
 15 17  2  0
M  END
> <chembl_id>
CHEMBL287727

> <chembl_pref_name>
None

$$$$
CHEMBL3967988
     RDKit          2D

 24 27  0  0  0  0  0  0  0  0999 V2000
   17.6817  -12.0040    0.0000 C   0  0  0  0  0  0  0  0  0  0  0  0
   16.9727  -11.5954    0.0000 C   0  0  0  0  0  0  0  0  0  0  0  0
   16.2636  -12.0040    0.0000 C   0  0  0  0  0  0  0  0  0  0  0  0
   15.5586  -11.5954    0.0000 C   0  0  0  0  0  0  0  0  0  0  0  0
   15.5586  -10.7783    0.0000 C   0  0  0  0  0  0  0  0  0  0  0  0
   16.2636  -10.3697    0.0000 C   0  0  0  0  0  0  0  0  0  0  0  0
   16.9727  -10.7783    0.0000 C   0  0  0  0  0  0  0  0  0  0  0  0
   18.3908  -11.5954    0.0000 O   0  0  0  0  0  0  0  0  0  0  0  0
   17.6817  -12.8212    0.0000 N   0  0  0  0  0  0  0  0  0  0  0  0
   16.9727  -13.2298    0.0000 N   0  0  0  0  0  0  0  0  0  0  0  0
   16.2636   -9.5525    0.0000 O   0  0  0  0  0  0  0  0  0  0  0  0
   16.2636  -12.8212    0.0000 O   0  0  0  0  0  0  0  0  0  0  0  0
   17.6817  -15.2728    0.0000 C   0  0  0  0  0  0  0  0  0  0  0  0
   16.9727  -15.6814    0.0000 N   0  0  0  0  0  0  0  0  0  0  0  0
   16.2636  -15.2728    0.0000 C   0  0  0  0  0  0  0  0  0  0  0  0
   16.2636  -14.4556    0.0000 C   0  0  0  0  0  0  0  0  0  0  0  0
   16.9727  -14.0470    0.0000 C   0  0  0  0  0  0  0  0  0  0  0  0
   17.6817  -14.4556    0.0000 N   0  0  0  0  0  0  0  0  0  0  0  0
   15.4863  -14.2051    0.0000 C   0  0  0  0  0  0  0  0  0  0  0  0
   15.0103  -14.8642    0.0000 C   0  0  0  0  0  0  0  0  0  0  0  0
   15.4863  -15.5275    0.0000 S   0  0  0  0  0  0  0  0  0  0  0  0
   14.2290  -14.6137    0.0000 C   0  0  0  0  0  0  0  0  0  0  0  0
   14.2290  -13.7965    0.0000 C   0  0  0  0  0  0  0  0  0  0  0  0
   15.0103  -13.5418    0.0000 C   0  0  0  0  0  0  0  0  0  0  0  0
  1  2  1  0
  2  3  1  0
  3  4  2  0
  4  5  1  0
  5  6  2  0
  6  7  1  0
  2  7  2  0
  9 10  1  0
  1  8  2  0
  1  9  1  0
  6 11  1  0
  3 12  1  0
 13 14  1  0
 14 15  2  0
 15 16  1  0
 16 17  2  0
 17 18  1  0
 13 18  2  0
 19 20  2  0
 20 21  1  0
 22 23  1  0
 23 24  1  0
 19 24  1  0
 20 22  1  0
 15 21  1  0
 16 19  1  0
 10 17  1  0
M  END
> <chembl_id>
CHEMBL3967988

> <chembl_pref_name>
None

$$$$
CHEMBL1938663
     RDKit          2D

 25 27  0  0  0  0  0  0  0  0999 V2000
   22.3125  -22.9458    0.0000 C   0  0  0  0  0  0  0  0  0  0  0  0
   23.0250  -23.3583    0.0000 C   0  0  0  0  0  0  0  0  0  0  0  0
   23.0212  -24.1827    0.0000 C   0  0  0  0  0  0  0  0  0  0  0  0
   23.7329  -24.5951    0.0000 N   0  0  0  0  0  0  0  0  0  0  0  0
   24.4474  -24.1843    0.0000 C   0  0  0  0  0  0  0  0  0  0  0  0
   24.4457  -23.3567    0.0000 N   0  0  0  0  0  0  0  0  0  0  0  0
   23.7335  -22.9480    0.0000 C   0  0  0  0  0  0  0  0  0  0  0  0
   23.7318  -22.1230    0.0000 Cl  0  0  0  0  0  0  0  0  0  0  0  0
   25.1619  -24.5967    0.0000 N   0  0  0  0  0  0  0  0  0  0  0  0
   22.3055  -24.5930    0.0000 N   0  0  0  0  0  0  0  0  0  0  0  0
   22.3029  -25.4180    0.0000 C   0  0  0  0  0  0  0  0  0  0  0  0
   21.6375  -25.9001    0.0000 C   0  0  0  0  0  0  0  0  0  0  0  0
   21.8900  -26.6855    0.0000 C   0  0  0  0  0  0  0  0  0  0  0  0
   22.7151  -26.6880    0.0000 C   0  0  0  0  0  0  0  0  0  0  0  0
   22.9723  -25.9042    0.0000 C   0  0  0  0  0  0  0  0  0  0  0  0
   21.4030  -27.3514    0.0000 C   0  0  0  0  0  0  0  0  0  0  0  0
   20.5828  -27.2627    0.0000 O   0  0  0  0  0  0  0  0  0  0  0  0
   23.1980  -27.3569    0.0000 O   0  0  0  0  0  0  0  0  0  0  0  0
   23.7573  -25.6504    0.0000 O   0  0  0  0  0  0  0  0  0  0  0  0
   21.6000  -22.5333    0.0000 C   0  0  0  0  0  0  0  0  0  0  0  0
   20.8833  -22.1208    0.0000 C   0  0  0  0  0  0  0  0  0  0  0  0
   20.7912  -21.2991    0.0000 C   0  0  0  0  0  0  0  0  0  0  0  0
   19.9822  -21.1283    0.0000 C   0  0  0  0  0  0  0  0  0  0  0  0
   19.5697  -21.8450    0.0000 S   0  0  0  0  0  0  0  0  0  0  0  0
   20.1239  -22.4586    0.0000 C   0  0  0  0  0  0  0  0  0  0  0  0
  1  2  1  0
  6  7  2  0
  7  2  1  0
 12 13  1  0
 13 14  1  0
 14 15  1  0
 15 11  1  0
  3  4  1  0
 13 16  1  1
  7  8  1  0
 16 17  1  0
 14 18  1  6
  5  9  1  0
 15 19  1  6
  4  5  2  0
  1 20  3  0
  3 10  1  0
 20 21  1  0
 21 22  1  0
  2  3  2  0
 11 10  1  1
 11 12  1  0
  5  6  1  0
 22 23  2  0
 23 24  1  0
 24 25  1  0
 25 21  2  0
M  END
> <chembl_id>
CHEMBL1938663

> <chembl_pref_name>
None

$$$$
CHEMBL3120361
     RDKit          2D

 21 23  0  0  0  0  0  0  0  0999 V2000
   11.3320  -10.1901    0.0000 C   0  0  0  0  0  0  0  0  0  0  0  0
   11.3308  -11.0055    0.0000 C   0  0  0  0  0  0  0  0  0  0  0  0
   12.0430  -11.4145    0.0000 C   0  0  0  0  0  0  0  0  0  0  0  0
   12.0412   -9.7812    0.0000 C   0  0  0  0  0  0  0  0  0  0  0  0
   12.7457  -10.1865    0.0000 C   0  0  0  0  0  0  0  0  0  0  0  0
   12.7459  -11.0055    0.0000 C   0  0  0  0  0  0  0  0  0  0  0  0
   13.5248  -11.2556    0.0000 N   0  0  0  0  0  0  0  0  0  0  0  0
   14.0002  -10.6018    0.0000 C   0  0  0  0  0  0  0  0  0  0  0  0
   13.5244   -9.9361    0.0000 C   0  0  0  0  0  0  0  0  0  0  0  0
   13.7766   -9.1547    0.0000 C   0  0  0  0  0  0  0  0  0  0  0  0
   14.5718   -8.9845    0.0000 C   0  0  0  0  0  0  0  0  0  0  0  0
   14.8241   -8.2072    0.0000 O   0  0  0  0  0  0  0  0  0  0  0  0
   15.1188   -9.5916    0.0000 O   0  0  0  0  0  0  0  0  0  0  0  0
   13.7734  -12.0368    0.0000 C   0  0  0  0  0  0  0  0  0  0  0  0
   14.5722  -12.2109    0.0000 C   0  0  0  0  0  0  0  0  0  0  0  0
   14.8230  -12.9850    0.0000 C   0  0  0  0  0  0  0  0  0  0  0  0
   15.6179  -13.1583    0.0000 C   0  0  0  0  0  0  0  0  0  0  0  0
   16.1677  -12.5579    0.0000 C   0  0  0  0  0  0  0  0  0  0  0  0
   15.9152  -11.7766    0.0000 C   0  0  0  0  0  0  0  0  0  0  0  0
   15.1209  -11.6020    0.0000 C   0  0  0  0  0  0  0  0  0  0  0  0
   16.4646  -11.1716    0.0000 O   0  0  0  0  0  0  0  0  0  0  0  0
  1  2  2  0
  2  3  1  0
  3  6  2  0
  5  4  2  0
  4  1  1  0
  5  6  1  0
  6  7  1  0
  7  8  1  0
  8  9  2  0
  9  5  1  0
  9 10  1  0
 10 11  1  0
 11 12  2  0
 11 13  1  0
  7 14  1  0
 14 15  1  0
 15 16  2  0
 16 17  1  0
 17 18  2  0
 18 19  1  0
 19 20  2  0
 20 15  1  0
 19 21  1  0
M  END
> <chembl_id>
CHEMBL3120361

> <chembl_pref_name>
None

$$$$
CHEMBL500176
     RDKit          2D

 42 46  0  0  0  0  0  0  0  0999 V2000
   10.8833  -13.2958    0.0000 C   0  0  0  0  0  0  0  0  0  0  0  0
   11.7083  -13.2958    0.0000 C   0  0  0  0  0  0  0  0  0  0  0  0
   12.5333  -13.2958    0.0000 C   0  0  0  0  0  0  0  0  0  0  0  0
   11.7083  -12.4708    0.0000 C   0  0  0  0  0  0  0  0  0  0  0  0
   11.7083  -14.1208    0.0000 Cl  0  0  0  0  0  0  0  0  0  0  0  0
   12.9440  -14.0126    0.0000 C   0  0  0  0  0  0  0  0  0  0  0  0
   13.7682  -14.0130    0.0000 C   0  0  0  0  0  0  0  0  0  0  0  0
   14.1815  -13.2980    0.0000 C   0  0  0  0  0  0  0  0  0  0  0  0
   13.7646  -12.5811    0.0000 C   0  0  0  0  0  0  0  0  0  0  0  0
   12.9417  -12.5843    0.0000 C   0  0  0  0  0  0  0  0  0  0  0  0
   12.4251  -12.0602    0.0000 C   0  0  0  0  0  0  0  0  0  0  0  0
   12.4255  -11.2360    0.0000 C   0  0  0  0  0  0  0  0  0  0  0  0
   11.7105  -10.8226    0.0000 C   0  0  0  0  0  0  0  0  0  0  0  0
   10.9936  -11.2396    0.0000 C   0  0  0  0  0  0  0  0  0  0  0  0
   10.9968  -12.0624    0.0000 C   0  0  0  0  0  0  0  0  0  0  0  0
   10.4727  -12.5790    0.0000 C   0  0  0  0  0  0  0  0  0  0  0  0
    9.6485  -12.5787    0.0000 C   0  0  0  0  0  0  0  0  0  0  0  0
    9.2351  -13.2937    0.0000 C   0  0  0  0  0  0  0  0  0  0  0  0
    9.6521  -14.0105    0.0000 C   0  0  0  0  0  0  0  0  0  0  0  0
   10.4749  -14.0074    0.0000 C   0  0  0  0  0  0  0  0  0  0  0  0
    8.4101  -13.2948    0.0000 N   0  0  0  0  0  0  0  0  0  0  0  0
   15.0065  -13.2969    0.0000 N   0  0  0  0  0  0  0  0  0  0  0  0
   15.4181  -12.5819    0.0000 C   0  0  0  0  0  0  0  0  0  0  0  0
   16.2415  -12.5849    0.0000 C   0  0  0  0  0  0  0  0  0  0  0  0
   16.6529  -11.8708    0.0000 C   0  0  0  0  0  0  0  0  0  0  0  0
   16.2394  -11.1559    0.0000 C   0  0  0  0  0  0  0  0  0  0  0  0
   15.4102  -11.1596    0.0000 C   0  0  0  0  0  0  0  0  0  0  0  0
   15.0024  -11.8744    0.0000 C   0  0  0  0  0  0  0  0  0  0  0  0
    7.9967  -12.5809    0.0000 C   0  0  0  0  0  0  0  0  0  0  0  0
    8.4111  -11.8682    0.0000 C   0  0  0  0  0  0  0  0  0  0  0  0
    7.9983  -11.1548    0.0000 C   0  0  0  0  0  0  0  0  0  0  0  0
    7.1724  -11.1554    0.0000 C   0  0  0  0  0  0  0  0  0  0  0  0
    6.7611  -11.8755    0.0000 C   0  0  0  0  0  0  0  0  0  0  0  0
    7.1762  -12.5860    0.0000 C   0  0  0  0  0  0  0  0  0  0  0  0
    6.7580  -10.4421    0.0000 Cl  0  0  0  0  0  0  0  0  0  0  0  0
    5.9361  -11.8795    0.0000 C   0  0  0  0  0  0  0  0  0  0  0  0
    5.5270  -12.5959    0.0000 O   0  0  0  0  0  0  0  0  0  0  0  0
    5.5201  -11.1670    0.0000 O   0  0  0  0  0  0  0  0  0  0  0  0
   16.6500  -10.4403    0.0000 Cl  0  0  0  0  0  0  0  0  0  0  0  0
   17.4779  -11.8701    0.0000 C   0  0  0  0  0  0  0  0  0  0  0  0
   17.8910  -12.5842    0.0000 O   0  0  0  0  0  0  0  0  0  0  0  0
   17.8898  -11.1552    0.0000 O   0  0  0  0  0  0  0  0  0  0  0  0
 20  1  1  0
 10  3  1  0
 18 21  1  0
  2  3  1  0
  8 22  1  0
  4 11  2  0
 22 23  1  0
  3  6  2  0
 23 24  2  0
 11 12  1  0
 24 25  1  0
  1  2  1  0
 25 26  2  0
 12 13  2  0
 26 27  1  0
  6  7  1  0
 27 28  2  0
 28 23  1  0
 13 14  1  0
 21 29  1  0
  2  4  1  0
 29 30  2  0
 14 15  2  0
 30 31  1  0
 15  4  1  0
 31 32  2  0
  7  8  2  0
 32 33  1  0
  1 16  2  0
 33 34  2  0
 34 29  1  0
 32 35  1  0
 16 17  1  0
 33 36  1  0
  8  9  1  0
 36 37  1  0
 17 18  2  0
 36 38  2  0
  2  5  1  0
 26 39  1  0
 18 19  1  0
 25 40  1  0
  9 10  2  0
 40 41  1  0
 19 20  2  0
 40 42  2  0
M  END
> <chembl_id>
CHEMBL500176

> <chembl_pref_name>
None

$$$$
CHEMBL490830
     RDKit          2D

 25 28  0  0  0  0  0  0  0  0999 V2000
   12.0713    1.0037    0.0000 C   0  0  0  0  0  0  0  0  0  0  0  0
   12.0702    0.1767    0.0000 C   0  0  0  0  0  0  0  0  0  0  0  0
   12.7847   -0.2359    0.0000 C   0  0  0  0  0  0  0  0  0  0  0  0
   12.7829    1.4163    0.0000 C   0  0  0  0  0  0  0  0  0  0  0  0
   13.4979    1.0073    0.0000 C   0  0  0  0  0  0  0  0  0  0  0  0
   13.4967    0.1747    0.0000 C   0  0  0  0  0  0  0  0  0  0  0  0
   14.2132   -0.2404    0.0000 N   0  0  0  0  0  0  0  0  0  0  0  0
   14.2156    1.4248    0.0000 C   0  0  0  0  0  0  0  0  0  0  0  0
   14.9366    1.0053    0.0000 C   0  0  0  0  0  0  0  0  0  0  0  0
   14.9353    0.1767    0.0000 C   0  0  0  0  0  0  0  0  0  0  0  0
   15.6510   -0.2368    0.0000 C   0  0  0  0  0  0  0  0  0  0  0  0
   16.3686    0.1770    0.0000 C   0  0  0  0  0  0  0  0  0  0  0  0
   16.3659    1.0087    0.0000 C   0  0  0  0  0  0  0  0  0  0  0  0
   15.6495    1.4185    0.0000 C   0  0  0  0  0  0  0  0  0  0  0  0
   14.2156    2.2494    0.0000 O   0  0  0  0  0  0  0  0  0  0  0  0
   15.6507   -1.0613    0.0000 C   0  0  0  0  0  0  0  0  0  0  0  0
   14.9365   -1.4733    0.0000 O   0  0  0  0  0  0  0  0  0  0  0  0
   16.3647   -1.4739    0.0000 N   0  0  0  0  0  0  0  0  0  0  0  0
   16.3644   -2.2985    0.0000 C   0  0  0  0  0  0  0  0  0  0  0  0
   15.6500   -2.7049    0.0000 C   0  0  0  0  0  0  0  0  0  0  0  0
   15.6493   -3.5286    0.0000 C   0  0  0  0  0  0  0  0  0  0  0  0
   16.3639   -3.9420    0.0000 C   0  0  0  0  0  0  0  0  0  0  0  0
   17.0805   -3.5256    0.0000 C   0  0  0  0  0  0  0  0  0  0  0  0
   17.0776   -2.7032    0.0000 C   0  0  0  0  0  0  0  0  0  0  0  0
   14.9374   -2.2900    0.0000 C   0  0  0  0  0  0  0  0  0  0  0  0
 11 12  2  0
  2  3  1  0
 12 13  1  0
  3  6  2  0
 13 14  2  0
 14  9  1  0
  1  2  2  0
  8 15  2  0
  5  8  1  0
 11 16  1  0
  6  7  1  0
 16 17  2  0
  7 10  1  0
 16 18  1  0
  9  8  1  0
 18 19  1  0
  5  4  2  0
 19 20  2  0
  4  1  1  0
 20 21  1  0
  9 10  2  0
 21 22  2  0
  5  6  1  0
 22 23  1  0
 10 11  1  0
 23 24  2  0
 24 19  1  0
 20 25  1  0
M  END
> <chembl_id>
CHEMBL490830

> <chembl_pref_name>
None

$$$$
CHEMBL3895122
     RDKit          2D

 26 30  0  0  0  0  0  0  0  0999 V2000
    8.7696  -23.8359    0.0000 C   0  0  0  0  0  0  0  0  0  0  0  0
    8.0624  -24.2437    0.0000 N   0  0  0  0  0  0  0  0  0  0  0  0
    7.3556  -23.8384    0.0000 C   0  0  0  0  0  0  0  0  0  0  0  0
    7.3518  -23.0212    0.0000 C   0  0  0  0  0  0  0  0  0  0  0  0
    8.0589  -22.6093    0.0000 C   0  0  0  0  0  0  0  0  0  0  0  0
    8.7699  -23.0187    0.0000 N   0  0  0  0  0  0  0  0  0  0  0  0
    6.5734  -22.7702    0.0000 C   0  0  0  0  0  0  0  0  0  0  0  0
    6.0963  -23.4357    0.0000 C   0  0  0  0  0  0  0  0  0  0  0  0
    6.5795  -24.0925    0.0000 S   0  0  0  0  0  0  0  0  0  0  0  0
    5.2814  -23.3513    0.0000 C   0  0  0  0  0  0  0  0  0  0  0  0
    4.9476  -22.6056    0.0000 C   0  0  0  0  0  0  0  0  0  0  0  0
    5.4247  -21.9442    0.0000 C   0  0  0  0  0  0  0  0  0  0  0  0
    6.2396  -22.0244    0.0000 C   0  0  0  0  0  0  0  0  0  0  0  0
    8.0551  -21.7921    0.0000 N   0  0  0  0  0  0  0  0  0  0  0  0
    8.7623  -21.3843    0.0000 N   0  0  0  0  0  0  0  0  0  0  0  0
    8.7585  -20.5671    0.0000 C   0  0  0  0  0  0  0  0  0  0  0  0
    8.0516  -20.1577    0.0000 C   0  0  0  0  0  0  0  0  0  0  0  0
    9.4656  -20.1552    0.0000 C   0  0  0  0  0  0  0  0  0  0  0  0
    9.5500  -19.3403    0.0000 N   0  0  0  0  0  0  0  0  0  0  0  0
   10.3476  -19.1699    0.0000 C   0  0  0  0  0  0  0  0  0  0  0  0
   10.7595  -19.8771    0.0000 C   0  0  0  0  0  0  0  0  0  0  0  0
   10.2145  -20.4861    0.0000 N   0  0  0  0  0  0  0  0  0  0  0  0
   11.5767  -19.8733    0.0000 C   0  0  0  0  0  0  0  0  0  0  0  0
   11.9820  -19.1664    0.0000 C   0  0  0  0  0  0  0  0  0  0  0  0
   11.5701  -18.4593    0.0000 C   0  0  0  0  0  0  0  0  0  0  0  0
   10.7529  -18.4590    0.0000 C   0  0  0  0  0  0  0  0  0  0  0  0
  1  2  1  0
  2  3  2  0
  3  4  1  0
  4  5  2  0
  5  6  1  0
  1  6  2  0
  7  8  1  0
  8  9  1  0
 10 11  1  0
 11 12  2  0
 12 13  1  0
  7 13  2  0
  8 10  2  0
  3  9  1  0
  4  7  1  0
 14 15  1  0
 16 17  1  0
 18 19  1  0
 19 20  1  0
 20 21  1  0
 21 22  1  0
 18 22  2  0
 23 24  1  0
 24 25  2  0
 25 26  1  0
 20 26  2  0
 21 23  2  0
 16 18  1  0
 15 16  2  0
  5 14  1  0
M  END
> <chembl_id>
CHEMBL3895122

> <chembl_pref_name>
None

$$$$
CHEMBL1584828
     RDKit          2D

 34 39  0  0  0  0  0  0  0  0999 V2000
   -3.0849    2.2068    0.0000 O   0  0  0  0  0  0  0  0  0  0  0  0
   -2.4175    4.3418    0.0000 O   0  0  0  0  0  0  0  0  0  0  0  0
    2.6701    2.2838    0.0000 O   0  0  0  0  0  0  0  0  0  0  0  0
   -0.9023    1.8713    0.0000 N   0  0  0  0  0  0  0  0  0  0  0  0
   -0.9023    3.5213    0.0000 N   0  0  0  0  0  0  0  0  0  0  0  0
    1.9556    1.0463    0.0000 N   0  0  0  0  0  0  0  0  0  0  0  0
    1.9556   -0.6037    0.0000 N   0  0  0  0  0  0  0  0  0  0  0  0
    1.2411   -1.8412    0.0000 N   0  0  0  0  0  0  0  0  0  0  0  0
    2.6701   -1.8412    0.0000 N   0  0  0  0  0  0  0  0  0  0  0  0
   -1.6168    2.2838    0.0000 C   0  0  0  0  0  0  0  0  0  0  0  0
   -1.6168    3.1088    0.0000 C   0  0  0  0  0  0  0  0  0  0  0  0
   -0.1878    2.2838    0.0000 C   0  0  0  0  0  0  0  0  0  0  0  0
   -0.1878    3.1088    0.0000 C   0  0  0  0  0  0  0  0  0  0  0  0
   -2.3312    1.8713    0.0000 C   0  0  0  0  0  0  0  0  0  0  0  0
   -2.3312    3.5213    0.0000 C   0  0  0  0  0  0  0  0  0  0  0  0
    1.2411    2.2838    0.0000 C   0  0  0  0  0  0  0  0  0  0  0  0
    0.5267    1.8713    0.0000 C   0  0  0  0  0  0  0  0  0  0  0  0
    0.5267    3.5213    0.0000 C   0  0  0  0  0  0  0  0  0  0  0  0
    1.9556    1.8713    0.0000 C   0  0  0  0  0  0  0  0  0  0  0  0
    1.2411    3.1088    0.0000 C   0  0  0  0  0  0  0  0  0  0  0  0
   -2.4175    1.0508    0.0000 C   0  0  0  0  0  0  0  0  0  0  0  0
   -3.0849    3.1857    0.0000 C   0  0  0  0  0  0  0  0  0  0  0  0
    2.6701    0.6338    0.0000 C   0  0  0  0  0  0  0  0  0  0  0  0
    1.2411    0.6338    0.0000 C   0  0  0  0  0  0  0  0  0  0  0  0
   -3.6369    1.5937    0.0000 C   0  0  0  0  0  0  0  0  0  0  0  0
   -3.2244    0.8793    0.0000 C   0  0  0  0  0  0  0  0  0  0  0  0
   -3.2244    4.5133    0.0000 C   0  0  0  0  0  0  0  0  0  0  0  0
   -3.6369    3.7988    0.0000 C   0  0  0  0  0  0  0  0  0  0  0  0
    2.6701   -0.1912    0.0000 C   0  0  0  0  0  0  0  0  0  0  0  0
    1.2411   -0.1912    0.0000 C   0  0  0  0  0  0  0  0  0  0  0  0
    1.9556   -1.4287    0.0000 C   0  0  0  0  0  0  0  0  0  0  0  0
    1.2411   -2.6662    0.0000 C   0  0  0  0  0  0  0  0  0  0  0  0
    2.6701   -2.6662    0.0000 C   0  0  0  0  0  0  0  0  0  0  0  0
    1.9556   -3.0787    0.0000 C   0  0  0  0  0  0  0  0  0  0  0  0
  1 14  1  0
  1 25  1  0
  2 15  1  0
  2 27  1  0
  3 19  2  0
  4 10  2  0
  4 12  1  0
  5 11  2  0
  5 13  1  0
  6 19  1  0
  6 23  1  0
  6 24  1  0
  7 29  1  0
  7 30  1  0
  7 31  1  0
  8 31  2  0
  8 32  1  0
  9 31  1  0
  9 33  2  0
 10 11  1  0
 10 14  1  0
 11 15  1  0
 12 13  1  0
 12 17  2  0
 13 18  2  0
 14 21  2  0
 15 22  2  0
 16 17  1  0
 16 19  1  0
 16 20  2  0
 18 20  1  0
 21 26  1  0
 22 28  1  0
 23 29  1  0
 24 30  1  0
 25 26  2  0
 27 28  2  0
 32 34  2  0
 33 34  1  0
M  END
> <chembl_id>
CHEMBL1584828

> <chembl_pref_name>
None

$$$$
CHEMBL9352
     RDKit          2D

 20 22  0  0  0  0  0  0  0  0999 V2000
   -1.6778    0.4707    0.0000 C   0  0  0  0  0  0  0  0  0  0  0  0
   -2.3922    0.0582    0.0000 C   0  0  0  0  0  0  0  0  0  0  0  0
   -2.3922   -0.7668    0.0000 C   0  0  0  0  0  0  0  0  0  0  0  0
   -1.6778   -1.1793    0.0000 C   0  0  0  0  0  0  0  0  0  0  0  0
   -0.9633   -0.7668    0.0000 C   0  0  0  0  0  0  0  0  0  0  0  0
   -0.9633    0.0582    0.0000 C   0  0  0  0  0  0  0  0  0  0  0  0
   -0.2488   -1.1793    0.0000 C   0  0  0  0  0  0  0  0  0  0  0  0
    0.4656   -0.7668    0.0000 C   0  0  0  0  0  0  0  0  0  0  0  0
    0.4656    0.0582    0.0000 C   0  0  0  0  0  0  0  0  0  0  0  0
   -0.2488    0.4707    0.0000 O   0  0  0  0  0  0  0  0  0  0  0  0
   -0.2488   -2.0043    0.0000 O   0  0  0  0  0  0  0  0  0  0  0  0
    1.1801    0.4707    0.0000 C   0  0  0  0  0  0  0  0  0  0  0  0
    1.1801    1.2957    0.0000 C   0  0  0  0  0  0  0  0  0  0  0  0
    1.8946    1.7082    0.0000 C   0  0  0  0  0  0  0  0  0  0  0  0
    2.6091    1.2957    0.0000 C   0  0  0  0  0  0  0  0  0  0  0  0
    2.6091    0.4707    0.0000 C   0  0  0  0  0  0  0  0  0  0  0  0
    1.8946    0.0582    0.0000 C   0  0  0  0  0  0  0  0  0  0  0  0
    3.3235    1.7082    0.0000 O   0  0  0  0  0  0  0  0  0  0  0  0
   -3.1067    0.4707    0.0000 O   0  0  0  0  0  0  0  0  0  0  0  0
   -1.6778   -2.0043    0.0000 O   0  0  0  0  0  0  0  0  0  0  0  0
  1  2  2  0
  1  6  1  0
  2  3  1  0
  2 19  1  0
  3  4  2  0
  4  5  1  0
  4 20  1  0
  5  6  2  0
  5  7  1  0
  6 10  1  0
  7  8  1  0
  7 11  2  0
  8  9  1  0
  9 10  1  0
  9 12  1  6
 12 13  1  0
 12 17  2  0
 13 14  2  0
 14 15  1  0
 15 16  2  0
 15 18  1  0
 16 17  1  0
M  END
> <chembl_id>
CHEMBL9352

> <chembl_pref_name>
NARINGENIN

$$$$
CHEMBL2326878
     RDKit          2D

 33 37  0  0  0  0  0  0  0  0999 V2000
   18.4678   -4.6579    0.0000 C   0  0  0  0  0  0  0  0  0  0  0  0
   18.4667   -5.4853    0.0000 C   0  0  0  0  0  0  0  0  0  0  0  0
   19.1815   -5.8982    0.0000 C   0  0  0  0  0  0  0  0  0  0  0  0
   19.1797   -4.2452    0.0000 C   0  0  0  0  0  0  0  0  0  0  0  0
   19.8951   -4.6543    0.0000 C   0  0  0  0  0  0  0  0  0  0  0  0
   19.8953   -5.4853    0.0000 C   0  0  0  0  0  0  0  0  0  0  0  0
   20.6858   -5.7410    0.0000 N   0  0  0  0  0  0  0  0  0  0  0  0
   21.1741   -5.0694    0.0000 C   0  0  0  0  0  0  0  0  0  0  0  0
   20.6857   -4.3961    0.0000 C   0  0  0  0  0  0  0  0  0  0  0  0
   21.1138   -6.4463    0.0000 C   0  0  0  0  0  0  0  0  0  0  0  0
   20.7170   -7.1696    0.0000 C   0  0  0  0  0  0  0  0  0  0  0  0
   21.9386   -6.4283    0.0000 O   0  0  0  0  0  0  0  0  0  0  0  0
   19.8943   -7.1829    0.0000 C   0  0  0  0  0  0  0  0  0  0  0  0
   19.4976   -7.9053    0.0000 C   0  0  0  0  0  0  0  0  0  0  0  0
   19.9257   -8.6116    0.0000 C   0  0  0  0  0  0  0  0  0  0  0  0
   20.6928   -3.5712    0.0000 C   0  0  0  0  0  0  0  0  0  0  0  0
   21.4108   -3.1648    0.0000 C   0  0  0  0  0  0  0  0  0  0  0  0
   22.1228   -3.5845    0.0000 C   0  0  0  0  0  0  0  0  0  0  0  0
   22.8386   -3.1816    0.0000 N   0  0  0  0  0  0  0  0  0  0  0  0
   22.8499   -2.3563    0.0000 C   0  0  0  0  0  0  0  0  0  0  0  0
   22.1391   -1.9355    0.0000 N   0  0  0  0  0  0  0  0  0  0  0  0
   21.4171   -2.3400    0.0000 C   0  0  0  0  0  0  0  0  0  0  0  0
   22.1145   -4.4094    0.0000 O   0  0  0  0  0  0  0  0  0  0  0  0
   23.5694   -1.9526    0.0000 S   0  0  0  0  0  0  0  0  0  0  0  0
   20.7069   -1.9202    0.0000 O   0  0  0  0  0  0  0  0  0  0  0  0
   21.1477   -7.8679    0.0000 C   0  0  0  0  0  0  0  0  0  0  0  0
   20.7549   -8.5894    0.0000 C   0  0  0  0  0  0  0  0  0  0  0  0
   21.1832   -9.2882    0.0000 C   0  0  0  0  0  0  0  0  0  0  0  0
   22.0042   -9.2667    0.0000 C   0  0  0  0  0  0  0  0  0  0  0  0
   22.3950   -8.5405    0.0000 C   0  0  0  0  0  0  0  0  0  0  0  0
   21.9644   -7.8447    0.0000 C   0  0  0  0  0  0  0  0  0  0  0  0
   17.7533   -4.2456    0.0000 O   0  0  0  0  0  0  0  0  0  0  0  0
   17.7531   -3.4206    0.0000 C   0  0  0  0  0  0  0  0  0  0  0  0
  1  2  2  0
  2  3  1  0
  3  6  2  0
  5  4  2  0
  4  1  1  0
  5  6  1  0
  6  7  1  0
  7  8  1  0
  8  9  2  0
  9  5  1  0
  7 10  1  0
 10 11  1  0
 10 12  2  0
 11 13  2  0
 13 14  1  0
 14 15  2  0
 15 27  1  0
 26 11  1  0
  9 16  1  0
 16 17  2  0
 17 18  1  0
 17 22  1  0
 18 19  1  0
 19 20  1  0
 20 21  1  0
 21 22  1  0
 18 23  2  0
 20 24  2  0
 22 25  2  0
 26 27  1  0
 27 28  2  0
 28 29  1  0
 29 30  2  0
 30 31  1  0
 31 26  2  0
  1 32  1  0
 32 33  1  0
M  END
> <chembl_id>
CHEMBL2326878

> <chembl_pref_name>
None

$$$$
CHEMBL1253549
     RDKit          2D

 11 11  0  0  0  0  0  0  0  0999 V2000
    5.3410  -22.3855    0.0000 C   0  0  0  0  0  0  0  0  0  0  0  0
    4.4868  -22.4075    0.0000 C   0  0  0  0  0  0  0  0  0  0  0  0
    4.0077  -23.0596    0.0000 C   0  0  0  0  0  0  0  0  0  0  0  0
    5.8651  -23.0354    0.0000 C   0  0  0  0  0  0  0  0  0  0  0  0
    5.6756  -23.8380    0.0000 C   0  0  0  0  0  0  0  0  0  0  0  0
    4.8964  -24.2058    0.0000 C   0  0  0  0  0  0  0  0  0  0  0  0
    4.1852  -23.8543    0.0000 C   0  0  0  0  0  0  0  0  0  0  0  0
    4.1027  -21.6724    0.0000 O   0  0  0  0  0  0  0  0  0  0  0  0
    5.6888  -21.6326    0.0000 O   0  0  0  0  0  0  0  0  0  0  0  0
    6.6904  -23.0340    0.0000 Cl  0  0  0  0  0  0  0  0  0  0  0  0
    3.1747  -23.0523    0.0000 Cl  0  0  0  0  0  0  0  0  0  0  0  0
  5  6  2  0
  6  7  1  0
  7  3  2  0
  4  5  1  0
  2  8  2  0
  1  2  1  0
  1  9  1  0
  2  3  1  0
  4 10  1  0
  1  4  2  0
  3 11  1  0
M  END
> <chembl_id>
CHEMBL1253549

> <chembl_pref_name>
None

$$$$
CHEMBL4082636
     RDKit          2D

 36 38  0  0  0  0  0  0  0  0999 V2000
    3.0830  -19.6993    0.0000 O   0  0  0  0  0  0  0  0  0  0  0  0
    3.4958  -20.4091    0.0000 S   0  0  0  0  0  0  0  0  0  0  0  0
    3.9042  -19.6968    0.0000 O   0  0  0  0  0  0  0  0  0  0  0  0
   12.3858  -22.7452    0.0000 O   0  0  0  0  0  0  0  0  0  0  0  0
   11.9813  -22.0394    0.0000 S   0  0  0  0  0  0  0  0  0  0  0  0
   11.5724  -22.7426    0.0000 O   0  0  0  0  0  0  0  0  0  0  0  0
    7.0369  -20.8095    0.0000 N   0  0  0  0  0  0  0  0  0  0  0  0
    7.0369  -21.6267    0.0000 C   0  0  0  0  0  0  0  0  0  0  0  0
    7.7422  -22.0311    0.0000 C   0  0  0  0  0  0  0  0  0  0  0  0
    8.4475  -21.6267    0.0000 N   0  0  0  0  0  0  0  0  0  0  0  0
    8.4475  -20.8095    0.0000 C   0  0  0  0  0  0  0  0  0  0  0  0
    7.7422  -20.3968    0.0000 C   0  0  0  0  0  0  0  0  0  0  0  0
    9.1546  -22.0363    0.0000 C   0  0  0  0  0  0  0  0  0  0  0  0
    9.8629  -21.6287    0.0000 C   0  0  0  0  0  0  0  0  0  0  0  0
   10.5700  -22.0384    0.0000 C   0  0  0  0  0  0  0  0  0  0  0  0
   11.2783  -21.6308    0.0000 N   0  0  0  0  0  0  0  0  0  0  0  0
   12.6937  -21.6328    0.0000 C   0  0  0  0  0  0  0  0  0  0  0  0
    6.3280  -20.4030    0.0000 C   0  0  0  0  0  0  0  0  0  0  0  0
    5.6215  -20.8136    0.0000 C   0  0  0  0  0  0  0  0  0  0  0  0
    4.9126  -20.4071    0.0000 C   0  0  0  0  0  0  0  0  0  0  0  0
    4.2061  -20.8178    0.0000 N   0  0  0  0  0  0  0  0  0  0  0  0
    2.7907  -20.8219    0.0000 C   0  0  0  0  0  0  0  0  0  0  0  0
    2.0826  -20.4119    0.0000 C   0  0  0  0  0  0  0  0  0  0  0  0
    1.3766  -20.8219    0.0000 C   0  0  0  0  0  0  0  0  0  0  0  0
    1.3786  -21.6400    0.0000 C   0  0  0  0  0  0  0  0  0  0  0  0
    2.0924  -22.0463    0.0000 C   0  0  0  0  0  0  0  0  0  0  0  0
    2.7955  -21.6340    0.0000 C   0  0  0  0  0  0  0  0  0  0  0  0
   13.3974  -22.0465    0.0000 C   0  0  0  0  0  0  0  0  0  0  0  0
   14.1052  -21.6396    0.0000 C   0  0  0  0  0  0  0  0  0  0  0  0
   14.1068  -20.8216    0.0000 C   0  0  0  0  0  0  0  0  0  0  0  0
   13.3947  -20.4121    0.0000 C   0  0  0  0  0  0  0  0  0  0  0  0
   12.6898  -20.8213    0.0000 C   0  0  0  0  0  0  0  0  0  0  0  0
    0.6726  -22.0516    0.0000 C   0  0  0  0  0  0  0  0  0  0  0  0
   -0.0368  -21.6460    0.0000 C   0  0  0  0  0  0  0  0  0  0  0  0
    0.6761  -22.8688    0.0000 C   0  0  0  0  0  0  0  0  0  0  0  0
    0.0000  -22.4521    0.0000 C   0  0  0  0  0  0  0  0  0  0  0  0
  2  1  2  0
  3  2  2  0
  5  4  2  0
  6  5  2  0
  7  8  1  0
  7 12  1  0
  8  9  1  0
  9 10  1  0
 10 11  1  0
 11 12  1  0
 10 13  1  0
 13 14  1  0
 14 15  1  0
 15 16  1  0
 16  5  1  0
  5 17  1  0
  7 18  1  0
 18 19  1  0
 19 20  1  0
 20 21  1  0
 21  2  1  0
  2 22  1  0
 22 23  2  0
 23 24  1  0
 24 25  2  0
 25 26  1  0
 26 27  2  0
 27 22  1  0
 17 28  2  0
 28 29  1  0
 29 30  2  0
 30 31  1  0
 31 32  2  0
 32 17  1  0
 25 33  1  0
 33 34  1  0
 33 35  1  0
 33 36  1  0
M  END
> <chembl_id>
CHEMBL4082636

> <chembl_pref_name>
None

$$$$
CHEMBL2058850
     RDKit          2D

 43 47  0  0  0  0  0  0  0  0999 V2000
   12.2901   -1.5660    0.0000 C   0  0  0  0  0  0  0  0  0  0  0  0
   12.2953   -2.3922    0.0000 C   0  0  0  0  0  0  0  0  0  0  0  0
   13.0105   -2.7983    0.0000 C   0  0  0  0  0  0  0  0  0  0  0  0
   13.7227   -2.3821    0.0000 C   0  0  0  0  0  0  0  0  0  0  0  0
   13.7196   -1.5595    0.0000 C   0  0  0  0  0  0  0  0  0  0  0  0
   13.0023   -1.1498    0.0000 O   0  0  0  0  0  0  0  0  0  0  0  0
   14.4318   -1.1432    0.0000 C   0  0  0  0  0  0  0  0  0  0  0  0
   15.1470   -1.5493    0.0000 C   0  0  0  0  0  0  0  0  0  0  0  0
   15.1522   -2.3755    0.0000 C   0  0  0  0  0  0  0  0  0  0  0  0
   14.4401   -2.7918    0.0000 C   0  0  0  0  0  0  0  0  0  0  0  0
   13.0157   -3.6244    0.0000 O   0  0  0  0  0  0  0  0  0  0  0  0
   15.8591   -1.1330    0.0000 O   0  0  0  0  0  0  0  0  0  0  0  0
   14.4452   -3.6179    0.0000 O   0  0  0  0  0  0  0  0  0  0  0  0
   11.5728   -1.1563    0.0000 C   0  0  0  0  0  0  0  0  0  0  0  0
   10.8606   -1.5726    0.0000 C   0  0  0  0  0  0  0  0  0  0  0  0
   10.1454   -1.1665    0.0000 C   0  0  0  0  0  0  0  0  0  0  0  0
   10.1402   -0.3404    0.0000 C   0  0  0  0  0  0  0  0  0  0  0  0
   10.8524    0.0760    0.0000 C   0  0  0  0  0  0  0  0  0  0  0  0
   11.5698   -0.3338    0.0000 C   0  0  0  0  0  0  0  0  0  0  0  0
    9.4229    0.0694    0.0000 O   0  0  0  0  0  0  0  0  0  0  0  0
    9.4198    0.8919    0.0000 C   0  0  0  0  0  0  0  0  0  0  0  0
    9.4333   -1.5827    0.0000 O   0  0  0  0  0  0  0  0  0  0  0  0
    8.7159   -1.1730    0.0000 C   0  0  0  0  0  0  0  0  0  0  0  0
    8.0038   -1.5893    0.0000 C   0  0  0  0  0  0  0  0  0  0  0  0
    8.0090   -2.4155    0.0000 O   0  0  0  0  0  0  0  0  0  0  0  0
    7.2865   -1.1796    0.0000 C   0  0  0  0  0  0  0  0  0  0  0  0
    6.5743   -1.5959    0.0000 O   0  0  0  0  0  0  0  0  0  0  0  0
    7.2834   -0.3571    0.0000 C   0  0  0  0  0  0  0  0  0  0  0  0
    6.5660    0.0527    0.0000 O   0  0  0  0  0  0  0  0  0  0  0  0
    7.9955    0.0593    0.0000 C   0  0  0  0  0  0  0  0  0  0  0  0
    8.7107   -0.3469    0.0000 O   0  0  0  0  0  0  0  0  0  0  0  0
    7.9903    0.8854    0.0000 C   0  0  0  0  0  0  0  0  0  0  0  0
    7.2730    1.2952    0.0000 O   0  0  0  0  0  0  0  0  0  0  0  0
    7.2699    2.1177    0.0000 C   0  0  0  0  0  0  0  0  0  0  0  0
    6.5525    2.5274    0.0000 C   0  0  0  0  0  0  0  0  0  0  0  0
    5.8404    2.1111    0.0000 O   0  0  0  0  0  0  0  0  0  0  0  0
    6.5473    3.3536    0.0000 C   0  0  0  0  0  0  0  0  0  0  0  0
    5.8321    3.7597    0.0000 O   0  0  0  0  0  0  0  0  0  0  0  0
    7.2596    3.7699    0.0000 C   0  0  0  0  0  0  0  0  0  0  0  0
    7.2565    4.5983    0.0000 O   0  0  0  0  0  0  0  0  0  0  0  0
    7.9769    3.3602    0.0000 C   0  0  0  0  0  0  0  0  0  0  0  0
    7.9821    2.5340    0.0000 O   0  0  0  0  0  0  0  0  0  0  0  0
    8.6890    3.7764    0.0000 C   0  0  0  0  0  0  0  0  0  0  0  0
  1  2  1  0
  2  3  1  0
  3  4  1  0
  4  5  1  0
  5  6  1  0
  1  6  1  0
  7  8  1  0
  8  9  2  0
  9 10  1  0
  4 10  2  0
  5  7  2  0
  3 11  2  0
  8 12  1  0
 10 13  1  0
 14 15  1  0
 15 16  2  0
 16 17  1  0
 17 18  2  0
 18 19  1  0
 14 19  2  0
 20 21  1  0
 17 20  1  0
 23 24  1  0
 24 25  1  6
 24 26  1  0
 26 27  1  1
 26 28  1  0
 28 29  1  6
 28 30  1  0
 30 31  1  0
 30 32  1  1
 32 33  1  0
 23 31  1  0
 34 35  1  0
 35 36  1  6
 35 37  1  0
 37 38  1  6
 37 39  1  0
 39 40  1  1
 39 41  1  0
 41 42  1  0
 41 43  1  6
 34 42  1  0
 34 33  1  1
 23 22  1  1
 16 22  1  0
  1 14  1  1
M  END
> <chembl_id>
CHEMBL2058850

> <chembl_pref_name>
ISOHESPERIDIN

$$$$
CHEMBL5197294
     RDKit          2D

 42 47  0  0  0  0  0  0  0  0999 V2000
    0.4935   -0.6445    0.0000 C   0  0  0  0  0  0  0  0  0  0  0  0
    0.7227    0.4066    0.0000 C   0  0  0  0  0  0  0  0  0  0  0  0
   -0.2209   -1.0570    0.0000 C   0  0  0  0  0  0  0  0  0  0  0  0
   -0.9354   -0.6445    0.0000 C   0  0  0  0  0  0  0  0  0  0  0  0
   -1.6498   -1.0570    0.0000 C   0  0  0  0  0  0  0  0  0  0  0  0
   -2.3643   -0.6445    0.0000 C   0  0  0  0  0  0  0  0  0  0  0  0
   -3.0788   -1.0570    0.0000 O   0  0  0  0  0  0  0  0  0  0  0  0
   -1.6498   -1.8820    0.0000 C   0  0  0  0  0  0  0  0  0  0  0  0
   -0.9354   -2.2945    0.0000 C   0  0  0  0  0  0  0  0  0  0  0  0
   -0.9354   -3.1195    0.0000 O   0  0  0  0  0  0  0  0  0  0  0  0
   -0.2209   -1.8820    0.0000 C   0  0  0  0  0  0  0  0  0  0  0  0
    0.4935   -2.2945    0.0000 C   0  0  0  0  0  0  0  0  0  0  0  0
    0.4935   -3.1195    0.0000 O   0  0  0  0  0  0  0  0  0  0  0  0
    1.2079   -1.8820    0.0000 C   0  0  0  0  0  0  0  0  0  0  0  0
    1.9224   -2.2945    0.0000 C   0  0  0  0  0  0  0  0  0  0  0  0
    1.9224   -3.1195    0.0000 O   0  0  0  0  0  0  0  0  0  0  0  0
    2.6368   -1.8821    0.0000 C   0  0  0  0  0  0  0  0  0  0  0  0
    2.6368   -1.0571    0.0000 C   0  0  0  0  0  0  0  0  0  0  0  0
    1.9224   -0.6445    0.0000 C   0  0  0  0  0  0  0  0  0  0  0  0
    1.2079   -1.0570    0.0000 C   0  0  0  0  0  0  0  0  0  0  0  0
    0.1124    0.9623    0.0000 C   0  0  0  0  0  0  0  0  0  0  0  0
    0.2883    1.7660    0.0000 C   0  0  0  0  0  0  0  0  0  0  0  0
    1.0748    2.0169    0.0000 C   0  0  0  0  0  0  0  0  0  0  0  0
    1.6832    1.4655    0.0000 C   0  0  0  0  0  0  0  0  0  0  0  0
    1.5122    0.6586    0.0000 C   0  0  0  0  0  0  0  0  0  0  0  0
   -0.6692    0.7141    0.0000 C   0  0  0  0  0  0  0  0  0  0  0  0
   -1.2776    1.2683    0.0000 C   0  0  0  0  0  0  0  0  0  0  0  0
   -1.1043    2.0682    0.0000 C   0  0  0  0  0  0  0  0  0  0  0  0
   -0.3222    2.3224    0.0000 C   0  0  0  0  0  0  0  0  0  0  0  0
    2.4652    1.7195    0.0000 C   0  0  0  0  0  0  0  0  0  0  0  0
    3.0788    1.1680    0.0000 C   0  0  0  0  0  0  0  0  0  0  0  0
    2.9104    0.3649    0.0000 C   0  0  0  0  0  0  0  0  0  0  0  0
    2.1282    0.1050    0.0000 C   0  0  0  0  0  0  0  0  0  0  0  0
   -2.0747    1.0547    0.0000 C   0  0  0  0  0  0  0  0  0  0  0  0
   -2.6583    1.6383    0.0000 O   0  0  0  0  0  0  0  0  0  0  0  0
   -2.3643    0.1804    0.0000 O   0  0  0  0  0  0  0  0  0  0  0  0
   -2.6583    0.4712    0.0000 O   0  0  0  0  0  0  0  0  0  0  0  0
    1.2884    2.8141    0.0000 O   0  0  0  0  0  0  0  0  0  0  0  0
   -0.0367   -0.0124    0.0000 H   0  0  0  0  0  0  0  0  0  0  0  0
    1.3062   -0.1768    0.0000 H   0  0  0  0  0  0  0  0  0  0  0  0
    2.6788    2.5166    0.0000 O   0  0  0  0  0  0  0  0  0  0  0  0
   -0.1086    3.1195    0.0000 O   0  0  0  0  0  0  0  0  0  0  0  0
  1  2  1  0
  1  3  1  0
  3  4  2  0
  4  5  1  0
  5  6  1  0
  6  7  1  0
  5  8  2  0
  8  9  1  0
  9 10  1  0
 11  9  2  0
  3 11  1  0
 11 12  1  0
 12 13  2  0
 12 14  1  0
 14 15  1  0
 15 16  1  0
 15 17  2  0
 17 18  1  0
 18 19  2  0
 20 19  1  0
 20  1  1  0
 14 20  2  0
 21  2  1  0
 22 21  2  0
 23 22  1  0
 24 23  1  0
 25 24  2  0
  2 25  1  0
 21 26  1  0
 27 26  2  0
 28 27  1  0
 29 28  2  0
 22 29  1  0
 24 30  1  0
 31 30  2  0
 32 31  1  0
 33 32  2  0
 25 33  1  0
 27 34  1  0
 34 35  1  0
  6 36  2  0
 34 37  2  0
 23 38  2  0
  1 39  1  1
  2 40  1  6
 30 41  1  0
 29 42  1  0
M  END
> <chembl_id>
CHEMBL5197294

> <chembl_pref_name>
None

$$$$
CHEMBL1430383
     RDKit          2D

 36 41  0  0  0  0  0  0  0  0999 V2000
   -3.3122    2.6071    0.0000 O   0  0  0  0  0  0  0  0  0  0  0  0
   -2.6447    4.7421    0.0000 O   0  0  0  0  0  0  0  0  0  0  0  0
    2.4428    2.6841    0.0000 O   0  0  0  0  0  0  0  0  0  0  0  0
   -1.1296    2.2716    0.0000 N   0  0  0  0  0  0  0  0  0  0  0  0
   -1.1296    3.9216    0.0000 N   0  0  0  0  0  0  0  0  0  0  0  0
    1.7283    1.4466    0.0000 N   0  0  0  0  0  0  0  0  0  0  0  0
    1.7283   -0.2034    0.0000 N   0  0  0  0  0  0  0  0  0  0  0  0
   -1.8440    2.6841    0.0000 C   0  0  0  0  0  0  0  0  0  0  0  0
   -1.8440    3.5091    0.0000 C   0  0  0  0  0  0  0  0  0  0  0  0
   -0.4151    2.6841    0.0000 C   0  0  0  0  0  0  0  0  0  0  0  0
   -0.4151    3.5091    0.0000 C   0  0  0  0  0  0  0  0  0  0  0  0
   -2.5585    2.2716    0.0000 C   0  0  0  0  0  0  0  0  0  0  0  0
   -2.5585    3.9216    0.0000 C   0  0  0  0  0  0  0  0  0  0  0  0
    1.0139    2.6841    0.0000 C   0  0  0  0  0  0  0  0  0  0  0  0
    0.2994    2.2716    0.0000 C   0  0  0  0  0  0  0  0  0  0  0  0
    0.2994    3.9216    0.0000 C   0  0  0  0  0  0  0  0  0  0  0  0
    1.7283    2.2716    0.0000 C   0  0  0  0  0  0  0  0  0  0  0  0
    1.0139    3.5091    0.0000 C   0  0  0  0  0  0  0  0  0  0  0  0
   -2.6447    1.4511    0.0000 C   0  0  0  0  0  0  0  0  0  0  0  0
   -3.3122    3.5860    0.0000 C   0  0  0  0  0  0  0  0  0  0  0  0
    1.7283   -1.0284    0.0000 C   0  0  0  0  0  0  0  0  0  0  0  0
    2.4428    1.0341    0.0000 C   0  0  0  0  0  0  0  0  0  0  0  0
    1.0139    1.0341    0.0000 C   0  0  0  0  0  0  0  0  0  0  0  0
    2.4428    0.2091    0.0000 C   0  0  0  0  0  0  0  0  0  0  0  0
    1.0139    0.2091    0.0000 C   0  0  0  0  0  0  0  0  0  0  0  0
   -3.8642    1.9940    0.0000 C   0  0  0  0  0  0  0  0  0  0  0  0
   -3.4517    1.2796    0.0000 C   0  0  0  0  0  0  0  0  0  0  0  0
   -3.4517    4.9136    0.0000 C   0  0  0  0  0  0  0  0  0  0  0  0
   -3.8642    4.1991    0.0000 C   0  0  0  0  0  0  0  0  0  0  0  0
    2.4428   -1.4409    0.0000 C   0  0  0  0  0  0  0  0  0  0  0  0
    1.0139   -1.4409    0.0000 C   0  0  0  0  0  0  0  0  0  0  0  0
    1.0139   -2.2659    0.0000 C   0  0  0  0  0  0  0  0  0  0  0  0
    2.4428   -2.2659    0.0000 C   0  0  0  0  0  0  0  0  0  0  0  0
    1.7283   -2.6784    0.0000 C   0  0  0  0  0  0  0  0  0  0  0  0
    3.1573   -1.0284    0.0000 C   0  0  0  0  0  0  0  0  0  0  0  0
    0.2994   -2.6784    0.0000 C   0  0  0  0  0  0  0  0  0  0  0  0
  1 12  1  0
  1 26  1  0
  2 13  1  0
  2 28  1  0
  3 17  2  0
  4  8  2  0
  4 10  1  0
  5  9  2  0
  5 11  1  0
  6 17  1  0
  6 22  1  0
  6 23  1  0
  7 21  1  0
  7 24  1  0
  7 25  1  0
  8  9  1  0
  8 12  1  0
  9 13  1  0
 10 11  1  0
 10 15  2  0
 11 16  2  0
 12 19  2  0
 13 20  2  0
 14 15  1  0
 14 17  1  0
 14 18  2  0
 16 18  1  0
 19 27  1  0
 20 29  1  0
 21 30  1  0
 21 31  2  0
 22 24  1  0
 23 25  1  0
 26 27  2  0
 28 29  2  0
 30 33  2  0
 30 35  1  0
 31 32  1  0
 32 34  2  0
 32 36  1  0
 33 34  1  0
M  END
> <chembl_id>
CHEMBL1430383

> <chembl_pref_name>
None

$$$$
CHEMBL3114562
     RDKit          2D

 32 34  0  0  0  0  0  0  0  0999 V2000
   15.6623   -2.6073    0.0000 N   0  0  0  0  0  0  0  0  0  0  0  0
   15.6198   -1.2845    0.0000 N   0  0  0  0  0  0  0  0  0  0  0  0
   15.1636   -1.9614    0.0000 C   0  0  0  0  0  0  0  0  0  0  0  0
   17.8392   -1.1428    0.0000 N   0  0  0  0  0  0  0  0  0  0  0  0
   18.2104   -1.8696    0.0000 C   0  0  0  0  0  0  0  0  0  0  0  0
   17.8776   -2.6150    0.0000 N   0  0  0  0  0  0  0  0  0  0  0  0
   17.0901   -2.8212    0.0000 C   0  0  0  0  0  0  0  0  0  0  0  0
   17.0312   -0.9831    0.0000 C   0  0  0  0  0  0  0  0  0  0  0  0
   16.4312   -2.3297    0.0000 C   0  0  0  0  0  0  0  0  0  0  0  0
   16.4070   -1.5133    0.0000 C   0  0  0  0  0  0  0  0  0  0  0  0
   16.8254   -0.1923    0.0000 O   0  0  0  0  0  0  0  0  0  0  0  0
   19.0273   -1.8482    0.0000 N   0  0  0  0  0  0  0  0  0  0  0  0
   16.9339   -3.6233    0.0000 O   0  0  0  0  0  0  0  0  0  0  0  0
   19.4543   -2.5450    0.0000 C   0  0  0  0  0  0  0  0  0  0  0  0
   20.2712   -2.5236    0.0000 C   0  0  0  0  0  0  0  0  0  0  0  0
   20.6982   -3.2204    0.0000 C   0  0  0  0  0  0  0  0  0  0  0  0
   21.5151   -3.1990    0.0000 C   0  0  0  0  0  0  0  0  0  0  0  0
   21.9420   -3.8958    0.0000 C   0  0  0  0  0  0  0  0  0  0  0  0
   22.7590   -3.8744    0.0000 C   0  0  0  0  0  0  0  0  0  0  0  0
   23.1859   -4.5712    0.0000 C   0  0  0  0  0  0  0  0  0  0  0  0
   24.0028   -4.5498    0.0000 C   0  0  0  0  0  0  0  0  0  0  0  0
   15.3600   -3.3670    0.0000 C   0  0  0  0  0  0  0  0  0  0  0  0
   14.5702   -3.5677    0.0000 O   0  0  0  0  0  0  0  0  0  0  0  0
   14.5176   -4.3832    0.0000 C   0  0  0  0  0  0  0  0  0  0  0  0
   15.2770   -4.6852    0.0000 C   0  0  0  0  0  0  0  0  0  0  0  0
   15.7988   -4.0563    0.0000 C   0  0  0  0  0  0  0  0  0  0  0  0
   13.8270   -4.8200    0.0000 C   0  0  0  0  0  0  0  0  0  0  0  0
   13.1034   -4.4403    0.0000 O   0  0  0  0  0  0  0  0  0  0  0  0
   15.4791   -5.4770    0.0000 O   0  0  0  0  0  0  0  0  0  0  0  0
   16.6144   -4.1076    0.0000 O   0  0  0  0  0  0  0  0  0  0  0  0
   24.4298   -5.2466    0.0000 C   0  0  0  0  0  0  0  0  0  0  0  0
   25.2467   -5.2252    0.0000 C   0  0  0  0  0  0  0  0  0  0  0  0
  1  9  1  0
 10  2  1  0
  2  3  2  0
  3  1  1  0
  4  5  2  0
  5  6  1  0
  6  7  1  0
  4  8  1  0
  7  9  1  0
  8 10  1  0
  9 10  2  0
  8 11  2  0
  5 12  1  0
  7 13  2  0
 12 14  1  0
 14 15  1  0
 15 16  1  0
 16 17  1  0
 17 18  1  0
 18 19  1  0
 19 20  1  0
 20 21  1  0
 22  1  1  1
 22 23  1  0
 23 24  1  0
 24 25  1  0
 25 26  1  0
 26 22  1  0
 24 27  1  1
 27 28  1  0
 25 29  1  6
 26 30  1  6
 21 31  1  0
 31 32  1  0
M  END
> <chembl_id>
CHEMBL3114562

> <chembl_pref_name>
None

$$$$
CHEMBL1269932
     RDKit          2D

 30 33  0  0  0  0  0  0  0  0999 V2000
   -4.6165  -24.7248    0.0000 C   0  0  0  0  0  0  0  0  0  0  0  0
   -4.6177  -25.5519    0.0000 C   0  0  0  0  0  0  0  0  0  0  0  0
   -3.9031  -25.9646    0.0000 C   0  0  0  0  0  0  0  0  0  0  0  0
   -3.9049  -24.3122    0.0000 C   0  0  0  0  0  0  0  0  0  0  0  0
   -3.1898  -24.7212    0.0000 C   0  0  0  0  0  0  0  0  0  0  0  0
   -3.1910  -25.5539    0.0000 C   0  0  0  0  0  0  0  0  0  0  0  0
   -2.4744  -25.9691    0.0000 O   0  0  0  0  0  0  0  0  0  0  0  0
   -1.7519  -25.5560    0.0000 C   0  0  0  0  0  0  0  0  0  0  0  0
   -1.7507  -24.7232    0.0000 C   0  0  0  0  0  0  0  0  0  0  0  0
   -2.4720  -24.3036    0.0000 C   0  0  0  0  0  0  0  0  0  0  0  0
   -3.9074  -23.4875    0.0000 O   0  0  0  0  0  0  0  0  0  0  0  0
   -5.3323  -25.9637    0.0000 O   0  0  0  0  0  0  0  0  0  0  0  0
   -2.4719  -23.4789    0.0000 O   0  0  0  0  0  0  0  0  0  0  0  0
   -1.0427  -25.9702    0.0000 C   0  0  0  0  0  0  0  0  0  0  0  0
   -1.0464  -26.7960    0.0000 C   0  0  0  0  0  0  0  0  0  0  0  0
   -0.3342  -27.2104    0.0000 C   0  0  0  0  0  0  0  0  0  0  0  0
    0.3822  -26.7999    0.0000 C   0  0  0  0  0  0  0  0  0  0  0  0
    0.3819  -25.9709    0.0000 C   0  0  0  0  0  0  0  0  0  0  0  0
   -0.3310  -25.5603    0.0000 C   0  0  0  0  0  0  0  0  0  0  0  0
   -1.0354  -24.3127    0.0000 O   0  0  0  0  0  0  0  0  0  0  0  0
   -1.0334  -23.4880    0.0000 C   0  0  0  0  0  0  0  0  0  0  0  0
   -0.3182  -23.0773    0.0000 C   0  0  0  0  0  0  0  0  0  0  0  0
    0.3953  -23.4977    0.0000 C   0  0  0  0  0  0  0  0  0  0  0  0
    1.1100  -23.0878    0.0000 C   0  0  0  0  0  0  0  0  0  0  0  0
    1.1124  -22.2622    0.0000 C   0  0  0  0  0  0  0  0  0  0  0  0
    0.3942  -21.8482    0.0000 C   0  0  0  0  0  0  0  0  0  0  0  0
   -0.3176  -22.2605    0.0000 C   0  0  0  0  0  0  0  0  0  0  0  0
    0.3925  -21.0211    0.0000 N   0  0  0  0  0  0  0  0  0  0  0  0
   -0.3222  -20.6094    0.0000 O   0  0  0  0  0  0  0  0  0  0  0  0
    1.1062  -20.6079    0.0000 O   0  0  0  0  0  0  0  0  0  0  0  0
 14 15  2  0
  5  4  2  0
 15 16  1  0
  4  1  1  0
 16 17  2  0
  5 10  1  0
 17 18  1  0
  6  7  1  0
 18 19  2  0
 19 14  1  0
  8 14  1  0
  7  8  1  0
  9 20  1  0
  8  9  2  0
 20 21  1  0
  9 10  1  0
 21 22  1  0
  5  6  1  0
 22 23  2  0
  4 11  1  0
 23 24  1  0
 24 25  2  0
  2 12  1  0
 25 26  1  0
  2  3  1  0
 26 27  2  0
 27 22  1  0
 10 13  2  0
  3  6  2  0
  1  2  2  0
 28 29  2  0
 28 30  1  0
 26 28  1  0
M  CHG  2  28   1  30  -1
M  END
> <chembl_id>
CHEMBL1269932

> <chembl_pref_name>
None

$$$$
CHEMBL3896780
     RDKit          2D

 24 26  0  0  0  0  0  0  0  0999 V2000
   23.3765  -10.1440    0.0000 C   0  0  0  0  0  0  0  0  0  0  0  0
   23.3853  -10.9689    0.0000 C   0  0  0  0  0  0  0  0  0  0  0  0
   22.6759  -11.3885    0.0000 C   0  0  0  0  0  0  0  0  0  0  0  0
   21.9536  -10.9831    0.0000 C   0  0  0  0  0  0  0  0  0  0  0  0
   21.9448  -10.1580    0.0000 C   0  0  0  0  0  0  0  0  0  0  0  0
   22.6584   -9.7385    0.0000 C   0  0  0  0  0  0  0  0  0  0  0  0
   24.0859   -9.7245    0.0000 O   0  0  0  0  0  0  0  0  0  0  0  0
   21.2442  -11.4025    0.0000 O   0  0  0  0  0  0  0  0  0  0  0  0
   24.1035  -11.3744    0.0000 C   0  0  0  0  0  0  0  0  0  0  0  0
   24.8128  -10.9507    0.0000 C   0  0  0  0  0  0  0  0  0  0  0  0
   24.1122  -12.1993    0.0000 N   0  0  0  0  0  0  0  0  0  0  0  0
   23.4028  -12.6189    0.0000 N   0  0  0  0  0  0  0  0  0  0  0  0
   24.1385  -14.6743    0.0000 C   0  0  0  0  0  0  0  0  0  0  0  0
   23.4249  -15.0939    0.0000 N   0  0  0  0  0  0  0  0  0  0  0  0
   22.7068  -14.6884    0.0000 C   0  0  0  0  0  0  0  0  0  0  0  0
   22.6981  -13.8634    0.0000 C   0  0  0  0  0  0  0  0  0  0  0  0
   23.4074  -13.4439    0.0000 C   0  0  0  0  0  0  0  0  0  0  0  0
   24.1297  -13.8493    0.0000 N   0  0  0  0  0  0  0  0  0  0  0  0
   21.9136  -13.6144    0.0000 C   0  0  0  0  0  0  0  0  0  0  0  0
   21.4352  -14.2874    0.0000 C   0  0  0  0  0  0  0  0  0  0  0  0
   21.9261  -14.9494    0.0000 S   0  0  0  0  0  0  0  0  0  0  0  0
   21.6484  -12.8338    0.0000 C   0  0  0  0  0  0  0  0  0  0  0  0
   20.6102  -14.2962    0.0000 C   0  0  0  0  0  0  0  0  0  0  0  0
   20.2047  -15.0143    0.0000 C   0  0  0  0  0  0  0  0  0  0  0  0
  1  2  1  0
  2  3  2  0
  3  4  1  0
  4  5  2  0
  5  6  1  0
  1  6  2  0
  1  7  1  0
  4  8  1  0
  9 10  1  0
 11 12  1  0
 13 14  1  0
 14 15  2  0
 15 16  1  0
 16 17  2  0
 17 18  1  0
 13 18  2  0
 19 20  2  0
 20 21  1  0
 15 21  1  0
 16 19  1  0
 19 22  1  0
 23 24  1  0
 20 23  1  0
 12 17  1  0
  9 11  2  0
  2  9  1  0
M  END
> <chembl_id>
CHEMBL3896780

> <chembl_pref_name>
None

$$$$
CHEMBL3114568
     RDKit          2D

 35 37  0  0  0  0  0  0  0  0999 V2000
   16.9252   -9.0623    0.0000 N   0  0  0  0  0  0  0  0  0  0  0  0
   16.8827   -7.7395    0.0000 N   0  0  0  0  0  0  0  0  0  0  0  0
   16.4265   -8.4164    0.0000 C   0  0  0  0  0  0  0  0  0  0  0  0
   19.1021   -7.5978    0.0000 N   0  0  0  0  0  0  0  0  0  0  0  0
   19.4733   -8.3246    0.0000 C   0  0  0  0  0  0  0  0  0  0  0  0
   19.1405   -9.0700    0.0000 N   0  0  0  0  0  0  0  0  0  0  0  0
   18.3530   -9.2762    0.0000 C   0  0  0  0  0  0  0  0  0  0  0  0
   18.2941   -7.4381    0.0000 C   0  0  0  0  0  0  0  0  0  0  0  0
   17.6941   -8.7847    0.0000 C   0  0  0  0  0  0  0  0  0  0  0  0
   17.6699   -7.9682    0.0000 C   0  0  0  0  0  0  0  0  0  0  0  0
   18.0884   -6.6472    0.0000 O   0  0  0  0  0  0  0  0  0  0  0  0
   20.2902   -8.3032    0.0000 N   0  0  0  0  0  0  0  0  0  0  0  0
   18.1968  -10.0783    0.0000 O   0  0  0  0  0  0  0  0  0  0  0  0
   20.7172   -9.0000    0.0000 C   0  0  0  0  0  0  0  0  0  0  0  0
   21.5341   -8.9786    0.0000 C   0  0  0  0  0  0  0  0  0  0  0  0
   21.9611   -9.6754    0.0000 C   0  0  0  0  0  0  0  0  0  0  0  0
   22.7780   -9.6540    0.0000 C   0  0  0  0  0  0  0  0  0  0  0  0
   23.2050  -10.3508    0.0000 C   0  0  0  0  0  0  0  0  0  0  0  0
   24.0219  -10.3294    0.0000 C   0  0  0  0  0  0  0  0  0  0  0  0
   24.4488  -11.0262    0.0000 C   0  0  0  0  0  0  0  0  0  0  0  0
   25.2658  -11.0048    0.0000 C   0  0  0  0  0  0  0  0  0  0  0  0
   16.6229   -9.8220    0.0000 C   0  0  0  0  0  0  0  0  0  0  0  0
   15.8331  -10.0227    0.0000 O   0  0  0  0  0  0  0  0  0  0  0  0
   15.7806  -10.8382    0.0000 C   0  0  0  0  0  0  0  0  0  0  0  0
   16.5400  -11.1402    0.0000 C   0  0  0  0  0  0  0  0  0  0  0  0
   17.0617  -10.5113    0.0000 C   0  0  0  0  0  0  0  0  0  0  0  0
   15.0899  -11.2750    0.0000 C   0  0  0  0  0  0  0  0  0  0  0  0
   14.3663  -10.8953    0.0000 O   0  0  0  0  0  0  0  0  0  0  0  0
   16.7421  -11.9320    0.0000 O   0  0  0  0  0  0  0  0  0  0  0  0
   25.6927  -11.7016    0.0000 C   0  0  0  0  0  0  0  0  0  0  0  0
   26.5096  -11.6802    0.0000 C   0  0  0  0  0  0  0  0  0  0  0  0
   26.9366  -12.3770    0.0000 C   0  0  0  0  0  0  0  0  0  0  0  0
   27.7535  -12.3556    0.0000 C   0  0  0  0  0  0  0  0  0  0  0  0
   28.1805  -13.0524    0.0000 C   0  0  0  0  0  0  0  0  0  0  0  0
   28.9974  -13.0310    0.0000 C   0  0  0  0  0  0  0  0  0  0  0  0
  1  9  1  0
 10  2  1  0
  2  3  2  0
  3  1  1  0
  4  5  2  0
  5  6  1  0
  6  7  1  0
  4  8  1  0
  7  9  1  0
  8 10  1  0
  9 10  2  0
  8 11  2  0
  5 12  1  0
  7 13  2  0
 12 14  1  0
 14 15  1  0
 15 16  1  0
 16 17  1  0
 17 18  1  0
 18 19  1  0
 19 20  1  0
 20 21  1  0
 22  1  1  6
 22 23  1  0
 23 24  1  0
 24 25  1  0
 25 26  1  0
 26 22  1  0
 24 27  1  1
 27 28  1  0
 25 29  1  6
 21 30  1  0
 30 31  1  0
 31 32  1  0
 32 33  1  0
 33 34  1  0
 34 35  1  0
M  END
> <chembl_id>
CHEMBL3114568

> <chembl_pref_name>
None

$$$$
CHEMBL3415706
     RDKit          2D

 22 25  0  0  0  0  0  0  0  0999 V2000
    7.0761    0.2776    0.0000 C   0  0  0  0  0  0  0  0  0  0  0  0
   -1.0028   -1.5132    0.0000 C   0  0  0  0  0  0  0  0  0  0  0  0
    6.4347   -1.0784    0.0000 C   0  0  0  0  0  0  0  0  0  0  0  0
    1.7138   -1.2033    0.0000 C   0  0  0  0  0  0  0  0  0  0  0  0
   -2.3155    0.7475    0.0000 C   0  0  0  0  0  0  0  0  0  0  0  0
    6.2225    1.5111    0.0000 C   0  0  0  0  0  0  0  0  0  0  0  0
    2.1749    2.6315    0.0000 C   0  0  0  0  0  0  0  0  0  0  0  0
    4.9397   -1.2009    0.0000 C   0  0  0  0  0  0  0  0  0  0  0  0
   -2.3155   -0.7475    0.0000 C   0  0  0  0  0  0  0  0  0  0  0  0
    4.0896    0.0290    0.0000 C   0  0  0  0  0  0  0  0  0  0  0  0
    4.7275    1.3885    0.0000 C   0  0  0  0  0  0  0  0  0  0  0  0
    2.5889    0.0182    0.0000 C   0  0  0  0  0  0  0  0  0  0  0  0
    0.2917   -0.7475    0.0000 C   0  0  0  0  0  0  0  0  0  0  0  0
    1.7138    1.2033    0.0000 N   0  0  0  0  0  0  0  0  0  0  0  0
   -1.0028    1.5132    0.0000 C   0  0  0  0  0  0  0  0  0  0  0  0
    0.2917    0.7475    0.0000 C   0  0  0  0  0  0  0  0  0  0  0  0
    1.2517    3.8078    0.0000 C   0  0  0  0  0  0  0  0  0  0  0  0
    1.8114    5.1995    0.0000 C   0  0  0  0  0  0  0  0  0  0  0  0
    3.2965    5.4106    0.0000 C   0  0  0  0  0  0  0  0  0  0  0  0
    4.2218    4.2301    0.0000 C   0  0  0  0  0  0  0  0  0  0  0  0
    3.6621    2.8384    0.0000 C   0  0  0  0  0  0  0  0  0  0  0  0
    3.7442    6.5239    0.0000 F   0  0  0  0  0  0  0  0  0  0  0  0
  5 15  1  0
  3  8  2  0
 12 10  1  0
  9  5  1  0
  8 10  1  0
 14 12  1  0
 10 11  2  0
  9  2  1  0
 13  2  1  0
 14  7  1  0
  1  3  1  0
 15 16  1  0
  6  1  2  0
 11  6  1  0
 12  4  2  0
 13 16  2  0
 16 14  1  0
  4 13  1  0
  7 17  2  0
 17 18  1  0
 18 19  2  0
 19 20  1  0
 20 21  2  0
 21  7  1  0
 19 22  1  0
M  END
> <chembl_id>
CHEMBL3415706

> <chembl_pref_name>
None

$$$$
CHEMBL4739915
     RDKit          2D

 21 23  0  0  0  0  0  0  0  0999 V2000
    7.9335   -9.7128    0.0000 C   0  0  0  0  0  0  0  0  0  0  0  0
    8.7585   -9.7128    0.0000 N   0  0  0  0  0  0  0  0  0  0  0  0
    9.0153   -8.9286    0.0000 C   0  0  0  0  0  0  0  0  0  0  0  0
    8.3460   -8.4419    0.0000 N   0  0  0  0  0  0  0  0  0  0  0  0
    7.6810   -8.9286    0.0000 N   0  0  0  0  0  0  0  0  0  0  0  0
    9.2427  -10.3808    0.0000 N   0  0  0  0  0  0  0  0  0  0  0  0
    8.9062  -11.1340    0.0000 C   0  0  0  0  0  0  0  0  0  0  0  0
    8.1012  -11.3048    0.0000 C   0  0  0  0  0  0  0  0  0  0  0  0
    8.0139  -12.1251    0.0000 C   0  0  0  0  0  0  0  0  0  0  0  0
    8.7673  -12.4616    0.0000 C   0  0  0  0  0  0  0  0  0  0  0  0
    9.3199  -11.8491    0.0000 C   0  0  0  0  0  0  0  0  0  0  0  0
    7.4477  -10.3796    0.0000 S   0  0  0  0  0  0  0  0  0  0  0  0
    9.8003   -8.6747    0.0000 N   0  0  0  0  0  0  0  0  0  0  0  0
    9.9729   -7.8679    0.0000 N   0  0  0  0  0  0  0  0  0  0  0  0
   10.7580   -7.6141    0.0000 C   0  0  0  0  0  0  0  0  0  0  0  0
   11.3686   -8.1684    0.0000 C   0  0  0  0  0  0  0  0  0  0  0  0
   12.1529   -7.9151    0.0000 C   0  0  0  0  0  0  0  0  0  0  0  0
   12.3262   -7.1075    0.0000 C   0  0  0  0  0  0  0  0  0  0  0  0
   11.7089   -6.5538    0.0000 C   0  0  0  0  0  0  0  0  0  0  0  0
   10.9270   -6.8100    0.0000 C   0  0  0  0  0  0  0  0  0  0  0  0
   13.1109   -6.8526    0.0000 I   0  0  0  0  0  0  0  0  0  0  0  0
  1  2  1  0
  2  3  1  0
  3  4  2  0
  4  5  1  0
  5  1  2  0
  2  6  1  0
  6  7  1  0
  7  8  1  0
  8  9  1  0
  9 10  1  0
 10 11  2  0
 11  7  1  0
  1 12  1  0
  3 13  1  0
 13 14  1  0
 14 15  1  0
 15 16  2  0
 16 17  1  0
 17 18  2  0
 18 19  1  0
 19 20  2  0
 20 15  1  0
 18 21  1  0
M  END
> <chembl_id>
CHEMBL4739915

> <chembl_pref_name>
None

$$$$
CHEMBL4588212
     RDKit          2D

 16 18  0  0  0  0  0  0  0  0999 V2000
    4.8854  -22.1778    0.0000 S   0  0  0  0  0  0  0  0  0  0  0  0
    5.3842  -21.5304    0.0000 C   0  0  0  0  0  0  0  0  0  0  0  0
    4.9200  -20.8547    0.0000 N   0  0  0  0  0  0  0  0  0  0  0  0
    4.1150  -21.9052    0.0000 C   0  0  0  0  0  0  0  0  0  0  0  0
    4.1382  -21.0906    0.0000 C   0  0  0  0  0  0  0  0  0  0  0  0
    3.4454  -20.6650    0.0000 C   0  0  0  0  0  0  0  0  0  0  0  0
    2.7290  -21.0529    0.0000 C   0  0  0  0  0  0  0  0  0  0  0  0
    2.7096  -21.8707    0.0000 N   0  0  0  0  0  0  0  0  0  0  0  0
    3.4031  -22.2927    0.0000 C   0  0  0  0  0  0  0  0  0  0  0  0
    6.1980  -21.5540    0.0000 C   0  0  0  0  0  0  0  0  0  0  0  0
    6.5865  -22.2742    0.0000 C   0  0  0  0  0  0  0  0  0  0  0  0
    7.4026  -22.2968    0.0000 C   0  0  0  0  0  0  0  0  0  0  0  0
    7.8312  -21.6000    0.0000 C   0  0  0  0  0  0  0  0  0  0  0  0
    7.4377  -20.8789    0.0000 C   0  0  0  0  0  0  0  0  0  0  0  0
    6.6228  -20.8599    0.0000 C   0  0  0  0  0  0  0  0  0  0  0  0
    6.2317  -20.1424    0.0000 O   0  0  0  0  0  0  0  0  0  0  0  0
  4  1  1  0
  1  2  1  0
  2  3  2  0
  3  5  1  0
  4  5  2  0
  5  6  1  0
  6  7  2  0
  7  8  1  0
  8  9  2  0
  9  4  1  0
 10 11  2  0
 11 12  1  0
 12 13  2  0
 13 14  1  0
 14 15  2  0
 15 10  1  0
  2 10  1  0
 15 16  1  0
M  END
> <chembl_id>
CHEMBL4588212

> <chembl_pref_name>
None

$$$$
CHEMBL429399
     RDKit          2D

 25 27  0  0  1  0  0  0  0  0999 V2000
    0.9339    2.2412    0.0000 N   0  0  0  0  0  0  0  0  0  0  0  0
    0.2149    2.6583    0.0000 C   0  0  0  0  0  0  0  0  0  0  0  0
   -0.4996    1.4116    0.0000 C   0  0  0  0  0  0  0  0  0  0  0  0
   -0.4995    2.2458    0.0000 C   0  0  0  0  0  0  0  0  0  0  0  0
   -1.2929    2.5037    0.0000 N   0  0  0  0  0  0  0  0  0  0  0  0
   -1.7833    1.8288    0.0000 C   0  0  0  0  0  0  0  0  0  0  0  0
   -1.2929    1.1540    0.0000 N   0  0  0  0  0  0  0  0  0  0  0  0
    0.9339    1.4116    0.0000 N   0  0  0  0  0  0  0  0  0  0  0  0
    0.2155    1.0019    0.0000 C   0  0  0  0  0  0  0  0  0  0  0  0
    0.2121    0.1767    0.0000 N   0  0  0  0  0  0  0  0  0  0  0  0
    0.9264   -0.2398    0.0000 C   0  0  0  0  0  0  0  0  0  0  0  0
    1.6457    0.1750    0.0000 N   0  0  0  0  0  0  0  0  0  0  0  0
    1.6455    0.9989    0.0000 C   0  0  0  0  0  0  0  0  0  0  0  0
    0.9244   -1.0648    0.0000 N   0  0  0  0  0  0  0  0  0  0  0  0
    2.3604    1.4107    0.0000 N   0  0  0  0  0  0  0  0  0  0  0  0
    0.2157    3.4833    0.0000 O   0  0  0  0  0  0  0  0  0  0  0  0
   -1.5519    0.3710    0.0000 C   0  0  0  0  0  0  0  0  0  0  0  0
   -2.3365    0.1160    0.0000 O   0  0  0  0  0  0  0  0  0  0  0  0
   -2.3365   -0.7089    0.0000 C   0  0  0  0  0  0  0  0  0  0  0  0
   -1.5519   -0.9639    0.0000 C   0  0  0  0  0  0  0  0  0  0  0  0
   -1.0670   -0.2964    0.0000 C   0  0  0  0  0  0  0  0  0  0  0  0
   -0.2420   -0.2964    0.0000 O   0  0  0  0  0  0  0  0  0  0  0  0
   -1.2969   -1.7485    0.0000 O   0  0  0  0  0  0  0  0  0  0  0  0
   -3.0040   -1.1938    0.0000 C   0  0  0  0  0  0  0  0  0  0  0  0
   -3.7577   -0.8583    0.0000 O   0  0  0  0  0  0  0  0  0  0  0  0
  4  5  1  0
 12 13  1  0
 13  8  2  0
  5  6  2  0
 11 14  1  0
  6  7  1  0
 13 15  1  0
  7  3  1  0
  2 16  2  0
 17 18  1  0
  4  2  1  0
  8  9  1  0
  3  9  1  0
  9 10  1  0
 18 19  1  0
 19 20  1  0
 20 21  1  0
 21 17  1  0
 17  7  1  1
  1  2  1  0
 21 22  1  6
 10 11  2  0
 20 23  1  6
  3  4  2  0
 19 24  1  1
 11 12  1  0
 24 25  1  0
M  END
> <chembl_id>
CHEMBL429399

> <chembl_pref_name>
None

$$$$
CHEMBL1771766
     RDKit          2D

 28 31  0  0  0  0  0  0  0  0999 V2000
   -2.3490   -8.5387    0.0000 C   0  0  0  0  0  0  0  0  0  0  0  0
   -2.3502   -9.3637    0.0000 C   0  0  0  0  0  0  0  0  0  0  0  0
   -1.6373   -9.7754    0.0000 C   0  0  0  0  0  0  0  0  0  0  0  0
   -1.6391   -8.1270    0.0000 C   0  0  0  0  0  0  0  0  0  0  0  0
   -0.9258   -8.5350    0.0000 C   0  0  0  0  0  0  0  0  0  0  0  0
   -0.9270   -9.3658    0.0000 C   0  0  0  0  0  0  0  0  0  0  0  0
   -0.2121   -9.7799    0.0000 N   0  0  0  0  0  0  0  0  0  0  0  0
   -0.2097   -8.1184    0.0000 C   0  0  0  0  0  0  0  0  0  0  0  0
   -3.0631   -9.7745    0.0000 O   0  0  0  0  0  0  0  0  0  0  0  0
   -3.7752   -9.3626    0.0000 C   0  0  0  0  0  0  0  0  0  0  0  0
   -4.4880   -9.7733    0.0000 C   0  0  0  0  0  0  0  0  0  0  0  0
   -0.2096   -7.2957    0.0000 N   0  0  0  0  0  0  0  0  0  0  0  0
    0.5029   -6.8844    0.0000 N   0  0  0  0  0  0  0  0  0  0  0  0
    0.5098   -8.5371    0.0000 C   0  0  0  0  0  0  0  0  0  0  0  0
    0.5067   -9.3699    0.0000 C   0  0  0  0  0  0  0  0  0  0  0  0
    1.2225   -9.7866    0.0000 C   0  0  0  0  0  0  0  0  0  0  0  0
    1.9459   -9.3752    0.0000 C   0  0  0  0  0  0  0  0  0  0  0  0
    1.9489   -8.5424    0.0000 C   0  0  0  0  0  0  0  0  0  0  0  0
    1.2286   -8.1211    0.0000 C   0  0  0  0  0  0  0  0  0  0  0  0
    0.5029   -6.0617    0.0000 S   0  0  0  0  0  0  0  0  0  0  0  0
    1.2154   -5.6503    0.0000 C   0  0  0  0  0  0  0  0  0  0  0  0
    0.4986   -5.2354    0.0000 O   0  0  0  0  0  0  0  0  0  0  0  0
   -0.3199   -6.0539    0.0000 O   0  0  0  0  0  0  0  0  0  0  0  0
    1.9232   -6.0647    0.0000 N   0  0  0  0  0  0  0  0  0  0  0  0
    2.6353   -5.6540    0.0000 C   0  0  0  0  0  0  0  0  0  0  0  0
    2.6357   -4.8304    0.0000 C   0  0  0  0  0  0  0  0  0  0  0  0
    1.9183   -4.4193    0.0000 C   0  0  0  0  0  0  0  0  0  0  0  0
    1.2092   -4.8322    0.0000 C   0  0  0  0  0  0  0  0  0  0  0  0
 12 13  1  0
 14 15  1  0
  3  6  2  0
  1  2  2  0
  5  8  1  0
  6  7  1  0
  7 15  2  0
 14  8  2  0
 14 19  1  0
 15 16  1  0
 16 17  1  0
 17 18  1  0
 18 19  1  0
  5  4  2  0
 13 20  1  0
  2  9  1  0
 20 21  1  0
  4  1  1  0
 20 22  2  0
  9 10  1  0
 20 23  2  0
  5  6  1  0
 21 24  2  0
 10 11  1  0
 24 25  1  0
 25 26  2  0
  8 12  1  0
 26 27  1  0
  2  3  1  0
 27 28  2  0
 28 21  1  0
M  END
> <chembl_id>
CHEMBL1771766

> <chembl_pref_name>
None

$$$$
CHEMBL1594376
     RDKit          2D

 33 38  0  0  0  0  0  0  0  0999 V2000
    0.2391    0.1757    0.0000 S   0  0  0  0  0  0  0  0  0  0  0  0
   -1.9275   -2.6266    0.0000 O   0  0  0  0  0  0  0  0  0  0  0  0
    1.9615   -1.2062    0.0000 O   0  0  0  0  0  0  0  0  0  0  0  0
   -4.1566    1.8856    0.0000 O   0  0  0  0  0  0  0  0  0  0  0  0
    4.0195    1.0235    0.0000 O   0  0  0  0  0  0  0  0  0  0  0  0
   -1.2600    0.3333    0.0000 N   0  0  0  0  0  0  0  0  0  0  0  0
    0.4940   -1.9438    0.0000 N   0  0  0  0  0  0  0  0  0  0  0  0
    1.9615    0.2228    0.0000 N   0  0  0  0  0  0  0  0  0  0  0  0
   -0.5456   -0.9042    0.0000 C   0  0  0  0  0  0  0  0  0  0  0  0
   -1.2600   -1.3167    0.0000 C   0  0  0  0  0  0  0  0  0  0  0  0
   -1.9745   -0.9042    0.0000 C   0  0  0  0  0  0  0  0  0  0  0  0
   -0.5456   -0.0792    0.0000 C   0  0  0  0  0  0  0  0  0  0  0  0
   -1.9745   -0.0792    0.0000 C   0  0  0  0  0  0  0  0  0  0  0  0
    0.2391   -1.1591    0.0000 C   0  0  0  0  0  0  0  0  0  0  0  0
    0.7240   -0.4917    0.0000 C   0  0  0  0  0  0  0  0  0  0  0  0
   -1.2600   -2.1417    0.0000 C   0  0  0  0  0  0  0  0  0  0  0  0
   -2.7591    0.1757    0.0000 C   0  0  0  0  0  0  0  0  0  0  0  0
   -2.7591   -1.1591    0.0000 C   0  0  0  0  0  0  0  0  0  0  0  0
   -3.2440   -0.4917    0.0000 C   0  0  0  0  0  0  0  0  0  0  0  0
    1.5490   -0.4917    0.0000 C   0  0  0  0  0  0  0  0  0  0  0  0
   -0.5926   -2.6266    0.0000 C   0  0  0  0  0  0  0  0  0  0  0  0
   -3.0141    0.9604    0.0000 C   0  0  0  0  0  0  0  0  0  0  0  0
   -3.8210    1.1319    0.0000 C   0  0  0  0  0  0  0  0  0  0  0  0
   -1.6725   -3.4112    0.0000 C   0  0  0  0  0  0  0  0  0  0  0  0
   -0.8475   -3.4112    0.0000 C   0  0  0  0  0  0  0  0  0  0  0  0
    2.7865    0.2228    0.0000 C   0  0  0  0  0  0  0  0  0  0  0  0
   -4.4341    0.5799    0.0000 C   0  0  0  0  0  0  0  0  0  0  0  0
    3.1990    0.9372    0.0000 C   0  0  0  0  0  0  0  0  0  0  0  0
   -4.9771    1.7993    0.0000 C   0  0  0  0  0  0  0  0  0  0  0  0
   -5.1486    0.9924    0.0000 C   0  0  0  0  0  0  0  0  0  0  0  0
    2.8634    1.6909    0.0000 C   0  0  0  0  0  0  0  0  0  0  0  0
    4.1910    1.8304    0.0000 C   0  0  0  0  0  0  0  0  0  0  0  0
    3.4765    2.2429    0.0000 C   0  0  0  0  0  0  0  0  0  0  0  0
  1 12  1  0
  1 15  1  0
  2 16  1  0
  2 24  1  0
  3 20  2  0
  4 23  1  0
  4 29  1  0
  5 28  1  0
  5 32  1  0
  6 12  2  0
  6 13  1  0
  7 14  1  0
  8 20  1  0
  8 26  1  0
  9 10  2  0
  9 12  1  0
  9 14  1  0
 10 11  1  0
 10 16  1  0
 11 13  2  0
 11 18  1  0
 13 17  1  0
 14 15  2  0
 15 20  1  0
 16 21  2  0
 17 19  1  0
 17 22  2  0
 18 19  1  0
 21 25  1  0
 22 23  1  0
 23 27  2  0
 24 25  2  0
 26 28  1  0
 27 30  1  0
 28 31  1  0
 29 30  2  0
 31 33  1  0
 32 33  1  0
M  END
> <chembl_id>
CHEMBL1594376

> <chembl_pref_name>
None

$$$$
CHEMBL4533592
     RDKit          2D

 23 26  0  0  0  0  0  0  0  0999 V2000
   31.7079  -16.1532    0.0000 N   0  0  0  0  0  0  0  0  0  0  0  0
   31.0450  -15.6711    0.0000 N   0  0  0  0  0  0  0  0  0  0  0  0
   30.3862  -16.1532    0.0000 C   0  0  0  0  0  0  0  0  0  0  0  0
   31.4536  -16.9299    0.0000 C   0  0  0  0  0  0  0  0  0  0  0  0
   30.6364  -16.9299    0.0000 N   0  0  0  0  0  0  0  0  0  0  0  0
   30.3838  -17.7071    0.0000 N   0  0  0  0  0  0  0  0  0  0  0  0
   31.0450  -18.1875    0.0000 C   0  0  0  0  0  0  0  0  0  0  0  0
   31.7060  -17.7071    0.0000 S   0  0  0  0  0  0  0  0  0  0  0  0
   31.0450  -19.0047    0.0000 C   0  0  0  0  0  0  0  0  0  0  0  0
   30.3376  -19.4100    0.0000 C   0  0  0  0  0  0  0  0  0  0  0  0
   30.3373  -20.2264    0.0000 C   0  0  0  0  0  0  0  0  0  0  0  0
   31.0455  -20.6358    0.0000 C   0  0  0  0  0  0  0  0  0  0  0  0
   31.7556  -20.2228    0.0000 C   0  0  0  0  0  0  0  0  0  0  0  0
   31.7524  -19.4077    0.0000 C   0  0  0  0  0  0  0  0  0  0  0  0
   32.4581  -18.9957    0.0000 O   0  0  0  0  0  0  0  0  0  0  0  0
   33.1678  -19.4009    0.0000 C   0  0  0  0  0  0  0  0  0  0  0  0
   33.8735  -18.9889    0.0000 C   0  0  0  0  0  0  0  0  0  0  0  0
   34.5832  -19.3941    0.0000 N   0  0  0  0  0  0  0  0  0  0  0  0
   34.5839  -20.2120    0.0000 C   0  0  0  0  0  0  0  0  0  0  0  0
   35.2895  -20.6171    0.0000 C   0  0  0  0  0  0  0  0  0  0  0  0
   35.9977  -20.2086    0.0000 O   0  0  0  0  0  0  0  0  0  0  0  0
   35.9957  -19.3904    0.0000 C   0  0  0  0  0  0  0  0  0  0  0  0
   35.2856  -18.9808    0.0000 C   0  0  0  0  0  0  0  0  0  0  0  0
  4  1  2  0
  1  2  1  0
  2  3  2  0
  3  5  1  0
  4  5  1  0
  5  6  1  0
  6  7  2  0
  7  8  1  0
  8  4  1  0
  7  9  1  0
  9 10  2  0
 10 11  1  0
 11 12  2  0
 12 13  1  0
 13 14  2  0
 14  9  1  0
 14 15  1  0
 15 16  1  0
 16 17  1  0
 17 18  1  0
 18 19  1  0
 18 23  1  0
 19 20  1  0
 20 21  1  0
 21 22  1  0
 22 23  1  0
M  END
> <chembl_id>
CHEMBL4533592

> <chembl_pref_name>
None

$$$$
CHEMBL1592326
     RDKit          2D

 35 39  0  0  0  0  0  0  0  0999 V2000
   -0.4712   -0.2198    0.0000 O   0  0  0  0  0  0  0  0  0  0  0  0
    1.2844   -0.5930    0.0000 O   0  0  0  0  0  0  0  0  0  0  0  0
   -1.5986   -0.3222    0.0000 O   0  0  0  0  0  0  0  0  0  0  0  0
   -1.7042   -2.5279    0.0000 O   0  0  0  0  0  0  0  0  0  0  0  0
    0.8870   -5.0191    0.0000 O   0  0  0  0  0  0  0  0  0  0  0  0
    0.7575   -1.9655    0.0000 N   0  0  0  0  0  0  0  0  0  0  0  0
    3.6154   -1.9655    0.0000 N   0  0  0  0  0  0  0  0  0  0  0  0
    0.0039   -2.3011    0.0000 C   0  0  0  0  0  0  0  0  0  0  0  0
   -0.5482   -1.6880    0.0000 C   0  0  0  0  0  0  0  0  0  0  0  0
   -0.1357   -0.9735    0.0000 C   0  0  0  0  0  0  0  0  0  0  0  0
    0.6713   -1.1450    0.0000 C   0  0  0  0  0  0  0  0  0  0  0  0
   -0.1677   -3.1080    0.0000 C   0  0  0  0  0  0  0  0  0  0  0  0
   -1.3687   -1.7742    0.0000 C   0  0  0  0  0  0  0  0  0  0  0  0
   -1.8536   -1.1068    0.0000 C   0  0  0  0  0  0  0  0  0  0  0  0
    1.4720   -2.3780    0.0000 C   0  0  0  0  0  0  0  0  0  0  0  0
    0.4454   -3.6601    0.0000 C   0  0  0  0  0  0  0  0  0  0  0  0
   -0.9523   -3.3630    0.0000 C   0  0  0  0  0  0  0  0  0  0  0  0
    2.1865   -1.9655    0.0000 C   0  0  0  0  0  0  0  0  0  0  0  0
    0.2739   -4.4671    0.0000 C   0  0  0  0  0  0  0  0  0  0  0  0
   -2.6786   -1.1068    0.0000 C   0  0  0  0  0  0  0  0  0  0  0  0
   -1.1238   -4.1700    0.0000 C   0  0  0  0  0  0  0  0  0  0  0  0
   -2.2661    0.1628    0.0000 C   0  0  0  0  0  0  0  0  0  0  0  0
   -0.5107   -4.7220    0.0000 C   0  0  0  0  0  0  0  0  0  0  0  0
   -2.9335   -0.3222    0.0000 C   0  0  0  0  0  0  0  0  0  0  0  0
    2.9009   -2.3780    0.0000 C   0  0  0  0  0  0  0  0  0  0  0  0
    2.1865   -1.1405    0.0000 C   0  0  0  0  0  0  0  0  0  0  0  0
    0.7155   -5.8261    0.0000 C   0  0  0  0  0  0  0  0  0  0  0  0
    2.9009   -0.7280    0.0000 C   0  0  0  0  0  0  0  0  0  0  0  0
   -2.2661    0.9878    0.0000 C   0  0  0  0  0  0  0  0  0  0  0  0
    3.6154   -1.1405    0.0000 C   0  0  0  0  0  0  0  0  0  0  0  0
    1.3286   -6.3781    0.0000 C   0  0  0  0  0  0  0  0  0  0  0  0
   -0.0692   -6.0810    0.0000 C   0  0  0  0  0  0  0  0  0  0  0  0
    1.1570   -7.1851    0.0000 C   0  0  0  0  0  0  0  0  0  0  0  0
   -0.2407   -6.8880    0.0000 C   0  0  0  0  0  0  0  0  0  0  0  0
    0.3724   -7.4400    0.0000 C   0  0  0  0  0  0  0  0  0  0  0  0
  1 10  1  0
  2 11  2  0
  3 14  1  0
  3 22  1  0
  4 13  2  0
  5 19  1  0
  5 27  1  0
  6  8  1  0
  6 11  1  0
  6 15  1  0
  7 25  2  0
  7 30  1  0
  8  9  1  0
  8 12  1  0
  9 10  2  0
  9 13  1  0
 10 11  1  0
 12 16  1  0
 12 17  2  0
 13 14  1  0
 14 20  2  0
 15 18  1  0
 16 19  2  0
 17 21  1  0
 18 25  1  0
 18 26  2  0
 19 23  1  0
 20 24  1  0
 21 23  2  0
 22 24  2  0
 22 29  1  0
 26 28  1  0
 27 31  2  0
 27 32  1  0
 28 30  2  0
 31 33  1  0
 32 34  2  0
 33 35  2  0
 34 35  1  0
M  END
> <chembl_id>
CHEMBL1592326

> <chembl_pref_name>
None

$$$$
CHEMBL4076537
     RDKit          2D

 34 36  0  0  0  0  0  0  0  0999 V2000
   31.0368  -21.0076    0.0000 O   0  0  0  0  0  0  0  0  0  0  0  0
   30.6323  -20.3018    0.0000 S   0  0  0  0  0  0  0  0  0  0  0  0
   30.2233  -21.0050    0.0000 O   0  0  0  0  0  0  0  0  0  0  0  0
   23.1496  -20.4009    0.0000 O   0  0  0  0  0  0  0  0  0  0  0  0
   23.5623  -21.1108    0.0000 S   0  0  0  0  0  0  0  0  0  0  0  0
   23.9708  -20.3984    0.0000 O   0  0  0  0  0  0  0  0  0  0  0  0
   26.3936  -20.2936    0.0000 C   0  0  0  0  0  0  0  0  0  0  0  0
   26.3936  -21.1108    0.0000 N   0  0  0  0  0  0  0  0  0  0  0  0
   27.0989  -21.5152    0.0000 C   0  0  0  0  0  0  0  0  0  0  0  0
   27.8042  -21.1108    0.0000 C   0  0  0  0  0  0  0  0  0  0  0  0
   27.8042  -20.2936    0.0000 N   0  0  0  0  0  0  0  0  0  0  0  0
   27.0989  -19.8809    0.0000 C   0  0  0  0  0  0  0  0  0  0  0  0
   28.5131  -19.8871    0.0000 C   0  0  0  0  0  0  0  0  0  0  0  0
   29.2196  -20.2977    0.0000 C   0  0  0  0  0  0  0  0  0  0  0  0
   29.9285  -19.8912    0.0000 N   0  0  0  0  0  0  0  0  0  0  0  0
   25.6865  -21.5204    0.0000 C   0  0  0  0  0  0  0  0  0  0  0  0
   24.9782  -21.1128    0.0000 C   0  0  0  0  0  0  0  0  0  0  0  0
   24.2711  -21.5224    0.0000 N   0  0  0  0  0  0  0  0  0  0  0  0
   22.8557  -21.5245    0.0000 C   0  0  0  0  0  0  0  0  0  0  0  0
   22.1482  -21.1153    0.0000 C   0  0  0  0  0  0  0  0  0  0  0  0
   21.4416  -21.5242    0.0000 C   0  0  0  0  0  0  0  0  0  0  0  0
   21.4424  -22.3423    0.0000 C   0  0  0  0  0  0  0  0  0  0  0  0
   22.1556  -22.7497    0.0000 C   0  0  0  0  0  0  0  0  0  0  0  0
   22.8593  -22.3384    0.0000 C   0  0  0  0  0  0  0  0  0  0  0  0
   31.3439  -19.8954    0.0000 C   0  0  0  0  0  0  0  0  0  0  0  0
   32.0473  -20.3094    0.0000 C   0  0  0  0  0  0  0  0  0  0  0  0
   32.7557  -19.9035    0.0000 C   0  0  0  0  0  0  0  0  0  0  0  0
   32.7585  -19.0855    0.0000 C   0  0  0  0  0  0  0  0  0  0  0  0
   32.0470  -18.6750    0.0000 C   0  0  0  0  0  0  0  0  0  0  0  0
   31.3415  -19.0832    0.0000 C   0  0  0  0  0  0  0  0  0  0  0  0
   33.4669  -18.6780    0.0000 O   0  0  0  0  0  0  0  0  0  0  0  0
   34.1739  -19.0877    0.0000 C   0  0  0  0  0  0  0  0  0  0  0  0
   20.7358  -22.7529    0.0000 O   0  0  0  0  0  0  0  0  0  0  0  0
   20.0269  -22.3462    0.0000 C   0  0  0  0  0  0  0  0  0  0  0  0
  2  1  2  0
  3  2  2  0
  5  4  2  0
  6  5  2  0
  7  8  1  0
  7 12  1  0
  8  9  1  0
  9 10  1  0
 10 11  1  0
 11 12  1  0
 11 13  1  0
 13 14  1  0
 14 15  1  0
  8 16  1  0
 16 17  1  0
 17 18  1  0
 18  5  1  0
  5 19  1  0
 19 20  2  0
 20 21  1  0
 21 22  2  0
 22 23  1  0
 23 24  2  0
 24 19  1  0
 15  2  1  0
  2 25  1  0
 25 26  2  0
 26 27  1  0
 27 28  2  0
 28 29  1  0
 29 30  2  0
 30 25  1  0
 28 31  1  0
 31 32  1  0
 22 33  1  0
 33 34  1  0
M  END
> <chembl_id>
CHEMBL4076537

> <chembl_pref_name>
None

$$$$
CHEMBL1337304
     RDKit          2D

 24 26  0  0  0  0  0  0  0  0999 V2000
    0.9736    0.5206    0.0000 S   0  0  0  0  0  0  0  0  0  0  0  0
   -0.4374   -1.1039    0.0000 O   0  0  0  0  0  0  0  0  0  0  0  0
   -0.1387   -3.9461    0.0000 O   0  0  0  0  0  0  0  0  0  0  0  0
    2.1734   -2.2663    0.0000 O   0  0  0  0  0  0  0  0  0  0  0  0
   -0.4083    2.2430    0.0000 O   0  0  0  0  0  0  0  0  0  0  0  0
    1.0206    2.2430    0.0000 O   0  0  0  0  0  0  0  0  0  0  0  0
   -0.2880   -2.5250    0.0000 N   0  0  0  0  0  0  0  0  0  0  0  0
    1.0174   -3.1062    0.0000 N   0  0  0  0  0  0  0  0  0  0  0  0
    0.3061    1.8305    0.0000 N   0  0  0  0  0  0  0  0  0  0  0  0
    0.8680   -1.6851    0.0000 C   0  0  0  0  0  0  0  0  0  0  0  0
    0.0475   -1.7714    0.0000 C   0  0  0  0  0  0  0  0  0  0  0  0
    0.1969   -3.1925    0.0000 C   0  0  0  0  0  0  0  0  0  0  0  0
    1.3529   -2.3526    0.0000 C   0  0  0  0  0  0  0  0  0  0  0  0
   -1.1085   -2.6113    0.0000 C   0  0  0  0  0  0  0  0  0  0  0  0
    1.2036   -0.9314    0.0000 C   0  0  0  0  0  0  0  0  0  0  0  0
    0.7186   -0.2640    0.0000 C   0  0  0  0  0  0  0  0  0  0  0  0
    0.3061    1.0055    0.0000 C   0  0  0  0  0  0  0  0  0  0  0  0
   -0.1064   -0.2640    0.0000 C   0  0  0  0  0  0  0  0  0  0  0  0
   -0.3613    0.5206    0.0000 C   0  0  0  0  0  0  0  0  0  0  0  0
   -1.4441   -3.3649    0.0000 C   0  0  0  0  0  0  0  0  0  0  0  0
   -1.5934   -1.9438    0.0000 C   0  0  0  0  0  0  0  0  0  0  0  0
   -2.2646   -3.4512    0.0000 C   0  0  0  0  0  0  0  0  0  0  0  0
   -2.4139   -2.0301    0.0000 C   0  0  0  0  0  0  0  0  0  0  0  0
   -2.7495   -2.7837    0.0000 C   0  0  0  0  0  0  0  0  0  0  0  0
  1 16  1  0
  1 17  1  0
  2 11  2  0
  3 12  2  0
  4 13  2  0
  5  9  1  0
  6  9  2  0
  7 11  1  0
  7 12  1  0
  7 14  1  0
  8 12  1  0
  8 13  1  0
  9 17  1  0
 10 11  1  0
 10 13  1  0
 10 15  2  0
 14 20  2  0
 14 21  1  0
 15 16  1  0
 16 18  2  0
 17 19  2  0
 18 19  1  0
 20 22  1  0
 21 23  2  0
 22 24  2  0
 23 24  1  0
M  CHG  2   5  -1   9   1
M  END
> <chembl_id>
CHEMBL1337304

> <chembl_pref_name>
None

$$$$
CHEMBL560136
     RDKit          2D

 23 25  0  0  0  0  0  0  0  0999 V2000
   -2.1058    1.4129    0.0000 C   0  0  0  0  0  0  0  0  0  0  0  0
   -2.8203    1.0004    0.0000 C   0  0  0  0  0  0  0  0  0  0  0  0
   -2.8203    0.1754    0.0000 C   0  0  0  0  0  0  0  0  0  0  0  0
   -2.1058   -0.2371    0.0000 C   0  0  0  0  0  0  0  0  0  0  0  0
   -1.3914    0.1754    0.0000 C   0  0  0  0  0  0  0  0  0  0  0  0
   -1.3914    1.0004    0.0000 C   0  0  0  0  0  0  0  0  0  0  0  0
   -0.6769    1.4129    0.0000 C   0  0  0  0  0  0  0  0  0  0  0  0
    0.0376    1.0004    0.0000 N   0  0  0  0  0  0  0  0  0  0  0  0
    0.7521    1.4129    0.0000 C   0  0  0  0  0  0  0  0  0  0  0  0
    1.4665    1.0004    0.0000 C   0  0  0  0  0  0  0  0  0  0  0  0
    2.1810    1.4129    0.0000 O   0  0  0  0  0  0  0  0  0  0  0  0
    2.1810   -0.2371    0.0000 C   0  0  0  0  0  0  0  0  0  0  0  0
    1.4665    0.1754    0.0000 C   0  0  0  0  0  0  0  0  0  0  0  0
    2.8955    0.1754    0.0000 C   0  0  0  0  0  0  0  0  0  0  0  0
    2.8955    1.0004    0.0000 C   0  0  0  0  0  0  0  0  0  0  0  0
    3.6099    1.4129    0.0000 C   0  0  0  0  0  0  0  0  0  0  0  0
    4.3244    1.0004    0.0000 C   0  0  0  0  0  0  0  0  0  0  0  0
    4.3244    0.1754    0.0000 C   0  0  0  0  0  0  0  0  0  0  0  0
    3.6099   -0.2371    0.0000 C   0  0  0  0  0  0  0  0  0  0  0  0
    2.1810   -1.0621    0.0000 O   0  0  0  0  0  0  0  0  0  0  0  0
    3.6099   -1.0621    0.0000 O   0  0  0  0  0  0  0  0  0  0  0  0
    5.0389   -0.2371    0.0000 O   0  0  0  0  0  0  0  0  0  0  0  0
   -2.1058   -1.0621    0.0000 Cl  0  0  0  0  0  0  0  0  0  0  0  0
  5  6  2  0
  6  1  1  0
 10 13  2  0
 11 15  1  0
 14 12  1  0
 12 13  1  0
  1  2  2  0
  6  7  1  0
 14 15  2  0
  3  4  2  0
 15 16  1  0
  7  8  1  0
 16 17  2  0
 17 18  1  0
  8  9  1  0
 18 19  2  0
 19 14  1  0
  4  5  1  0
 12 20  2  0
  9 10  1  0
 19 21  1  0
 10 11  1  0
 18 22  1  0
  2  3  1  0
  4 23  1  0
M  END
> <chembl_id>
CHEMBL560136

> <chembl_pref_name>
None

$$$$
CHEMBL4098925
     RDKit          2D

 32 34  0  0  0  0  0  0  0  0999 V2000
   30.6983   -3.0376    0.0000 O   0  0  0  0  0  0  0  0  0  0  0  0
   30.2939   -2.3319    0.0000 S   0  0  0  0  0  0  0  0  0  0  0  0
   29.8849   -3.0350    0.0000 O   0  0  0  0  0  0  0  0  0  0  0  0
   22.8112   -2.4309    0.0000 O   0  0  0  0  0  0  0  0  0  0  0  0
   23.2239   -3.1408    0.0000 S   0  0  0  0  0  0  0  0  0  0  0  0
   23.6323   -2.4285    0.0000 O   0  0  0  0  0  0  0  0  0  0  0  0
   26.0552   -2.3236    0.0000 C   0  0  0  0  0  0  0  0  0  0  0  0
   26.0552   -3.1408    0.0000 N   0  0  0  0  0  0  0  0  0  0  0  0
   26.7605   -3.5453    0.0000 C   0  0  0  0  0  0  0  0  0  0  0  0
   27.4658   -3.1408    0.0000 C   0  0  0  0  0  0  0  0  0  0  0  0
   27.4658   -2.3236    0.0000 N   0  0  0  0  0  0  0  0  0  0  0  0
   26.7605   -1.9109    0.0000 C   0  0  0  0  0  0  0  0  0  0  0  0
   28.1747   -1.9171    0.0000 C   0  0  0  0  0  0  0  0  0  0  0  0
   28.8812   -2.3278    0.0000 C   0  0  0  0  0  0  0  0  0  0  0  0
   29.5901   -1.9213    0.0000 N   0  0  0  0  0  0  0  0  0  0  0  0
   25.3481   -3.5504    0.0000 C   0  0  0  0  0  0  0  0  0  0  0  0
   24.6398   -3.1429    0.0000 C   0  0  0  0  0  0  0  0  0  0  0  0
   23.9327   -3.5525    0.0000 N   0  0  0  0  0  0  0  0  0  0  0  0
   22.5172   -3.5545    0.0000 C   0  0  0  0  0  0  0  0  0  0  0  0
   21.8098   -3.1453    0.0000 C   0  0  0  0  0  0  0  0  0  0  0  0
   21.1032   -3.5543    0.0000 C   0  0  0  0  0  0  0  0  0  0  0  0
   21.1039   -4.3724    0.0000 C   0  0  0  0  0  0  0  0  0  0  0  0
   21.8172   -4.7798    0.0000 C   0  0  0  0  0  0  0  0  0  0  0  0
   22.5209   -4.3685    0.0000 C   0  0  0  0  0  0  0  0  0  0  0  0
   31.0055   -1.9254    0.0000 C   0  0  0  0  0  0  0  0  0  0  0  0
   31.7088   -2.3394    0.0000 C   0  0  0  0  0  0  0  0  0  0  0  0
   32.4172   -1.9336    0.0000 C   0  0  0  0  0  0  0  0  0  0  0  0
   32.4201   -1.1155    0.0000 C   0  0  0  0  0  0  0  0  0  0  0  0
   31.7086   -0.7050    0.0000 C   0  0  0  0  0  0  0  0  0  0  0  0
   31.0031   -1.1132    0.0000 C   0  0  0  0  0  0  0  0  0  0  0  0
   20.3974   -4.7829    0.0000 Cl  0  0  0  0  0  0  0  0  0  0  0  0
   33.1284   -0.7081    0.0000 Cl  0  0  0  0  0  0  0  0  0  0  0  0
  2  1  2  0
  3  2  2  0
  5  4  2  0
  6  5  2  0
  7  8  1  0
  7 12  1  0
  8  9  1  0
  9 10  1  0
 10 11  1  0
 11 12  1  0
 11 13  1  0
 13 14  1  0
 14 15  1  0
  8 16  1  0
 16 17  1  0
 17 18  1  0
 18  5  1  0
  5 19  1  0
 19 20  2  0
 20 21  1  0
 21 22  2  0
 22 23  1  0
 23 24  2  0
 24 19  1  0
 15  2  1  0
  2 25  1  0
 25 26  2  0
 26 27  1  0
 27 28  2  0
 28 29  1  0
 29 30  2  0
 30 25  1  0
 22 31  1  0
 28 32  1  0
M  END
> <chembl_id>
CHEMBL4098925

> <chembl_pref_name>
None

$$$$
CHEMBL3120359
     RDKit          2D

 21 23  0  0  0  0  0  0  0  0999 V2000
   11.9811   -4.1794    0.0000 C   0  0  0  0  0  0  0  0  0  0  0  0
   14.7611   -5.7541    0.0000 C   0  0  0  0  0  0  0  0  0  0  0  0
   11.2689   -3.7705    0.0000 C   0  0  0  0  0  0  0  0  0  0  0  0
   14.5099   -1.7495    0.0000 C   0  0  0  0  0  0  0  0  0  0  0  0
   14.7622   -0.9722    0.0000 O   0  0  0  0  0  0  0  0  0  0  0  0
   16.1058   -5.3228    0.0000 C   0  0  0  0  0  0  0  0  0  0  0  0
   13.7147   -1.9196    0.0000 C   0  0  0  0  0  0  0  0  0  0  0  0
   13.4625   -2.7010    0.0000 C   0  0  0  0  0  0  0  0  0  0  0  0
   15.5560   -5.9274    0.0000 C   0  0  0  0  0  0  0  0  0  0  0  0
   14.5103   -4.9759    0.0000 C   0  0  0  0  0  0  0  0  0  0  0  0
   11.2700   -2.9551    0.0000 C   0  0  0  0  0  0  0  0  0  0  0  0
   11.9793   -2.5462    0.0000 C   0  0  0  0  0  0  0  0  0  0  0  0
   13.9383   -3.3668    0.0000 C   0  0  0  0  0  0  0  0  0  0  0  0
   12.6838   -2.9515    0.0000 C   0  0  0  0  0  0  0  0  0  0  0  0
   12.6840   -3.7705    0.0000 C   0  0  0  0  0  0  0  0  0  0  0  0
   15.0589   -4.3711    0.0000 C   0  0  0  0  0  0  0  0  0  0  0  0
   15.8491   -4.5457    0.0000 C   0  0  0  0  0  0  0  0  0  0  0  0
   13.4629   -4.0206    0.0000 N   0  0  0  0  0  0  0  0  0  0  0  0
   15.0569   -2.3566    0.0000 O   0  0  0  0  0  0  0  0  0  0  0  0
   13.7115   -4.8018    0.0000 C   0  0  0  0  0  0  0  0  0  0  0  0
   16.3969   -3.9393    0.0000 I   0  0  0  0  0  0  0  0  0  0  0  0
  6 17  1  0
 14 12  2  0
  1 15  2  0
 18 13  1  0
 17 16  2  0
 16 10  1  0
 14 15  1  0
 13  8  2  0
 10  2  2  0
  3  1  1  0
  7  4  1  0
  2  9  1  0
  8 14  1  0
 11  3  2  0
  4 19  1  0
  8  7  1  0
  4  5  2  0
 15 18  1  0
 18 20  1  0
 20 10  1  0
 12 11  1  0
  9  6  2  0
 17 21  1  0
M  END
> <chembl_id>
CHEMBL3120359

> <chembl_pref_name>
None

$$$$
CHEMBL1375490
     RDKit          2D

 24 25  0  0  0  0  0  0  0  0999 V2000
   -2.3463   -1.7090    0.0000 F   0  0  0  0  0  0  0  0  0  0  0  0
   -3.7753    0.7660    0.0000 F   0  0  0  0  0  0  0  0  0  0  0  0
   -5.2042   -0.0590    0.0000 F   0  0  0  0  0  0  0  0  0  0  0  0
   -3.7753   -2.5340    0.0000 F   0  0  0  0  0  0  0  0  0  0  0  0
   -5.2042   -1.7090    0.0000 F   0  0  0  0  0  0  0  0  0  0  0  0
   -0.2029    2.0035    0.0000 O   0  0  0  0  0  0  0  0  0  0  0  0
   -0.2029   -0.4715    0.0000 O   0  0  0  0  0  0  0  0  0  0  0  0
    0.5115    0.7660    0.0000 O   0  0  0  0  0  0  0  0  0  0  0  0
   -2.3463    0.7660    0.0000 O   0  0  0  0  0  0  0  0  0  0  0  0
   -3.0608   -0.4715    0.0000 C   0  0  0  0  0  0  0  0  0  0  0  0
   -3.0608   -1.2965    0.0000 C   0  0  0  0  0  0  0  0  0  0  0  0
   -3.7753   -0.0590    0.0000 C   0  0  0  0  0  0  0  0  0  0  0  0
   -4.4898   -0.4715    0.0000 C   0  0  0  0  0  0  0  0  0  0  0  0
   -3.7753   -1.7090    0.0000 C   0  0  0  0  0  0  0  0  0  0  0  0
   -4.4898   -1.2965    0.0000 C   0  0  0  0  0  0  0  0  0  0  0  0
   -2.3463   -0.0590    0.0000 C   0  0  0  0  0  0  0  0  0  0  0  0
   -0.9174    0.7660    0.0000 C   0  0  0  0  0  0  0  0  0  0  0  0
   -0.9174   -0.0590    0.0000 C   0  0  0  0  0  0  0  0  0  0  0  0
   -1.6319   -0.4715    0.0000 C   0  0  0  0  0  0  0  0  0  0  0  0
   -0.2029    1.1785    0.0000 C   0  0  0  0  0  0  0  0  0  0  0  0
   -1.6319    1.1785    0.0000 C   0  0  0  0  0  0  0  0  0  0  0  0
   -0.9174    2.4160    0.0000 C   0  0  0  0  0  0  0  0  0  0  0  0
   -1.6319    2.0035    0.0000 C   0  0  0  0  0  0  0  0  0  0  0  0
   -0.9174    3.2410    0.0000 C   0  0  0  0  0  0  0  0  0  0  0  0
  1 11  1  0
  2 12  1  0
  3 13  1  0
  4 14  1  0
  5 15  1  0
  6 20  1  0
  6 22  1  0
  7 18  2  0
  8 20  2  0
  9 21  1  0
 10 11  2  0
 10 12  1  0
 10 16  1  0
 11 14  1  0
 12 13  2  0
 13 15  1  0
 14 15  2  0
 16 19  2  0
 17 18  1  0
 17 20  1  0
 17 21  2  0
 18 19  1  0
 21 23  1  0
 22 23  2  0
 22 24  1  0
M  END
> <chembl_id>
CHEMBL1375490

> <chembl_pref_name>
None

$$$$
CHEMBL4076812
     RDKit          2D

 34 36  0  0  0  0  0  0  0  0999 V2000
    3.9415   -5.2787    0.0000 O   0  0  0  0  0  0  0  0  0  0  0  0
    3.5370   -4.5730    0.0000 S   0  0  0  0  0  0  0  0  0  0  0  0
    3.1281   -5.2761    0.0000 O   0  0  0  0  0  0  0  0  0  0  0  0
   11.6140   -2.2328    0.0000 O   0  0  0  0  0  0  0  0  0  0  0  0
   12.0267   -2.9427    0.0000 S   0  0  0  0  0  0  0  0  0  0  0  0
   12.4352   -2.2303    0.0000 O   0  0  0  0  0  0  0  0  0  0  0  0
    7.0782   -3.3431    0.0000 C   0  0  0  0  0  0  0  0  0  0  0  0
    7.0782   -4.1602    0.0000 N   0  0  0  0  0  0  0  0  0  0  0  0
    7.7835   -4.5647    0.0000 C   0  0  0  0  0  0  0  0  0  0  0  0
    8.4888   -4.1602    0.0000 C   0  0  0  0  0  0  0  0  0  0  0  0
    8.4888   -3.3431    0.0000 N   0  0  0  0  0  0  0  0  0  0  0  0
    7.7835   -2.9303    0.0000 C   0  0  0  0  0  0  0  0  0  0  0  0
    9.1977   -2.9365    0.0000 C   0  0  0  0  0  0  0  0  0  0  0  0
    9.9042   -3.3472    0.0000 C   0  0  0  0  0  0  0  0  0  0  0  0
   10.6131   -2.9407    0.0000 C   0  0  0  0  0  0  0  0  0  0  0  0
   11.3196   -3.3513    0.0000 N   0  0  0  0  0  0  0  0  0  0  0  0
   12.7350   -3.3555    0.0000 C   0  0  0  0  0  0  0  0  0  0  0  0
   12.7274   -4.1737    0.0000 C   0  0  0  0  0  0  0  0  0  0  0  0
   13.4330   -4.5843    0.0000 C   0  0  0  0  0  0  0  0  0  0  0  0
   14.1429   -4.1777    0.0000 C   0  0  0  0  0  0  0  0  0  0  0  0
   14.1427   -3.3563    0.0000 C   0  0  0  0  0  0  0  0  0  0  0  0
   13.4364   -2.9494    0.0000 C   0  0  0  0  0  0  0  0  0  0  0  0
    6.3711   -4.5699    0.0000 C   0  0  0  0  0  0  0  0  0  0  0  0
    5.6628   -4.1623    0.0000 C   0  0  0  0  0  0  0  0  0  0  0  0
    4.9557   -4.5719    0.0000 C   0  0  0  0  0  0  0  0  0  0  0  0
    4.2474   -4.1644    0.0000 N   0  0  0  0  0  0  0  0  0  0  0  0
    2.8320   -4.1664    0.0000 C   0  0  0  0  0  0  0  0  0  0  0  0
    2.8301   -3.3502    0.0000 C   0  0  0  0  0  0  0  0  0  0  0  0
    2.1226   -2.9427    0.0000 C   0  0  0  0  0  0  0  0  0  0  0  0
    1.4168   -3.3524    0.0000 C   0  0  0  0  0  0  0  0  0  0  0  0
    1.4212   -4.1738    0.0000 C   0  0  0  0  0  0  0  0  0  0  0  0
    2.1264   -4.5776    0.0000 C   0  0  0  0  0  0  0  0  0  0  0  0
    0.7153   -4.5855    0.0000 Cl  0  0  0  0  0  0  0  0  0  0  0  0
   13.4302   -5.4014    0.0000 Cl  0  0  0  0  0  0  0  0  0  0  0  0
  2  1  2  0
  3  2  2  0
  5  4  2  0
  6  5  2  0
  7  8  1  0
  7 12  1  0
  8  9  1  0
  9 10  1  0
 10 11  1  0
 11 12  1  0
 11 13  1  0
 13 14  1  0
 14 15  1  0
 15 16  1  0
 16  5  1  0
  5 17  1  0
 17 18  2  0
 18 19  1  0
 19 20  2  0
 20 21  1  0
 21 22  2  0
 22 17  1  0
  8 23  1  0
 23 24  1  0
 24 25  1  0
 25 26  1  0
 26  2  1  0
  2 27  1  0
 27 28  2  0
 28 29  1  0
 29 30  2  0
 30 31  1  0
 31 32  2  0
 32 27  1  0
 31 33  1  0
 19 34  1  0
M  END
> <chembl_id>
CHEMBL4076812

> <chembl_pref_name>
None

$$$$
CHEMBL296595
     RDKit          2D

 19 21  0  0  0  0  0  0  0  0999 V2000
    6.9542   -7.0125    0.0000 N   0  0  0  0  0  0  0  0  0  0  0  0
    7.4792   -6.7125    0.0000 C   0  0  0  0  0  0  0  0  0  0  0  0
    7.4792   -6.1125    0.0000 C   0  0  0  0  0  0  0  0  0  0  0  0
    6.4417   -6.7125    0.0000 C   0  0  0  0  0  0  0  0  0  0  0  0
    6.4417   -6.1125    0.0000 N   0  0  0  0  0  0  0  0  0  0  0  0
    6.9542   -5.8125    0.0000 C   0  0  0  0  0  0  0  0  0  0  0  0
    8.0417   -5.9250    0.0000 N   0  0  0  0  0  0  0  0  0  0  0  0
    8.0542   -6.8917    0.0000 N   0  0  0  0  0  0  0  0  0  0  0  0
    8.4000   -6.4042    0.0000 C   0  0  0  0  0  0  0  0  0  0  0  0
    5.9250   -7.0125    0.0000 N   0  0  0  0  0  0  0  0  0  0  0  0
    4.8917   -5.8125    0.0000 C   0  0  0  0  0  0  0  0  0  0  0  0
    5.4042   -6.1125    0.0000 C   0  0  0  0  0  0  0  0  0  0  0  0
    6.9542   -5.2125    0.0000 O   0  0  0  0  0  0  0  0  0  0  0  0
    5.4042   -6.7125    0.0000 C   0  0  0  0  0  0  0  0  0  0  0  0
    4.3667   -6.1125    0.0000 C   0  0  0  0  0  0  0  0  0  0  0  0
    4.3667   -6.7167    0.0000 C   0  0  0  0  0  0  0  0  0  0  0  0
    4.8917   -5.2125    0.0000 Cl  0  0  0  0  0  0  0  0  0  0  0  0
    4.8917   -7.0125    0.0000 C   0  0  0  0  0  0  0  0  0  0  0  0
    3.8500   -5.8125    0.0000 F   0  0  0  0  0  0  0  0  0  0  0  0
  2  1  1  0
  3  2  1  0
  4  1  2  0
  5  4  1  0
  6  5  1  0
  7  3  1  0
  8  2  2  0
  9  8  1  0
 10  4  1  0
 11 12  2  0
 12 14  1  0
 13  6  1  0
 14 10  1  0
 15 16  2  0
 16 18  1  0
 17 11  1  0
 18 14  2  0
 19 15  1  0
  3  6  2  0
  9  7  2  0
 11 15  1  0
M  END
> <chembl_id>
CHEMBL296595

> <chembl_pref_name>
None

$$$$
CHEMBL3904528
     RDKit          2D

 23 27  0  0  0  0  0  0  0  0999 V2000
   11.6191  -11.4921    0.0000 C   0  0  0  0  0  0  0  0  0  0  0  0
   10.9100  -11.9007    0.0000 N   0  0  0  0  0  0  0  0  0  0  0  0
   10.2051  -11.4920    0.0000 C   0  0  0  0  0  0  0  0  0  0  0  0
   10.2052  -10.6748    0.0000 C   0  0  0  0  0  0  0  0  0  0  0  0
   10.9102  -10.2663    0.0000 C   0  0  0  0  0  0  0  0  0  0  0  0
   11.6192  -10.6750    0.0000 N   0  0  0  0  0  0  0  0  0  0  0  0
    9.4280  -10.4200    0.0000 C   0  0  0  0  0  0  0  0  0  0  0  0
    8.9478  -11.0832    0.0000 C   0  0  0  0  0  0  0  0  0  0  0  0
    9.4278  -11.7424    0.0000 S   0  0  0  0  0  0  0  0  0  0  0  0
    8.1332  -10.9950    0.0000 C   0  0  0  0  0  0  0  0  0  0  0  0
    7.8031  -10.2518    0.0000 C   0  0  0  0  0  0  0  0  0  0  0  0
    8.2833   -9.5886    0.0000 C   0  0  0  0  0  0  0  0  0  0  0  0
    9.0937   -9.6727    0.0000 C   0  0  0  0  0  0  0  0  0  0  0  0
   10.9103   -9.4491    0.0000 N   0  0  0  0  0  0  0  0  0  0  0  0
   11.6194   -9.0406    0.0000 C   0  0  0  0  0  0  0  0  0  0  0  0
   11.7077   -8.2260    0.0000 N   0  0  0  0  0  0  0  0  0  0  0  0
   12.5061   -8.0554    0.0000 C   0  0  0  0  0  0  0  0  0  0  0  0
   12.9146   -8.7645    0.0000 C   0  0  0  0  0  0  0  0  0  0  0  0
   12.3667   -9.3709    0.0000 N   0  0  0  0  0  0  0  0  0  0  0  0
   13.7318   -8.7646    0.0000 C   0  0  0  0  0  0  0  0  0  0  0  0
   14.1405   -8.0556    0.0000 C   0  0  0  0  0  0  0  0  0  0  0  0
   13.7319   -7.3506    0.0000 C   0  0  0  0  0  0  0  0  0  0  0  0
   12.9148   -7.3505    0.0000 C   0  0  0  0  0  0  0  0  0  0  0  0
  1  2  1  0
  2  3  2  0
  3  4  1  0
  4  5  2  0
  5  6  1  0
  1  6  2  0
  7  8  2  0
  8  9  1  0
 10 11  1  0
 11 12  1  0
 12 13  1  0
  7 13  1  0
  8 10  1  0
  3  9  1  0
  4  7  1  0
  5 14  1  0
 15 16  1  0
 16 17  1  0
 17 18  1  0
 18 19  1  0
 15 19  2  0
 20 21  1  0
 21 22  2  0
 22 23  1  0
 17 23  2  0
 18 20  2  0
 14 15  1  0
M  END
> <chembl_id>
CHEMBL3904528

> <chembl_pref_name>
None

$$$$
CHEMBL3893094
     RDKit          2D

 21 23  0  0  0  0  0  0  0  0999 V2000
   12.5428  -21.0381    0.0000 C   0  0  0  0  0  0  0  0  0  0  0  0
   11.8337  -20.6295    0.0000 C   0  0  0  0  0  0  0  0  0  0  0  0
   11.1288  -21.0381    0.0000 C   0  0  0  0  0  0  0  0  0  0  0  0
   10.4197  -20.6295    0.0000 C   0  0  0  0  0  0  0  0  0  0  0  0
   10.4197  -19.8123    0.0000 C   0  0  0  0  0  0  0  0  0  0  0  0
   11.1288  -19.4037    0.0000 C   0  0  0  0  0  0  0  0  0  0  0  0
   11.8337  -19.8123    0.0000 N   0  0  0  0  0  0  0  0  0  0  0  0
   13.2519  -20.6295    0.0000 O   0  0  0  0  0  0  0  0  0  0  0  0
   12.5428  -21.8553    0.0000 N   0  0  0  0  0  0  0  0  0  0  0  0
   11.8337  -22.2639    0.0000 N   0  0  0  0  0  0  0  0  0  0  0  0
   12.5428  -24.3068    0.0000 C   0  0  0  0  0  0  0  0  0  0  0  0
   11.8337  -24.7154    0.0000 N   0  0  0  0  0  0  0  0  0  0  0  0
   11.1288  -24.3068    0.0000 C   0  0  0  0  0  0  0  0  0  0  0  0
   11.1288  -23.4897    0.0000 C   0  0  0  0  0  0  0  0  0  0  0  0
   11.8337  -23.0811    0.0000 C   0  0  0  0  0  0  0  0  0  0  0  0
   12.5428  -23.4897    0.0000 N   0  0  0  0  0  0  0  0  0  0  0  0
   10.3474  -23.2391    0.0000 C   0  0  0  0  0  0  0  0  0  0  0  0
    9.8714  -23.8982    0.0000 C   0  0  0  0  0  0  0  0  0  0  0  0
   10.3474  -24.5615    0.0000 S   0  0  0  0  0  0  0  0  0  0  0  0
   10.0969  -22.4619    0.0000 C   0  0  0  0  0  0  0  0  0  0  0  0
    9.0542  -23.8982    0.0000 Cl  0  0  0  0  0  0  0  0  0  0  0  0
  1  2  1  0
  2  3  1  0
  3  4  2  0
  4  5  1  0
  5  6  2  0
  6  7  1  0
  2  7  2  0
  9 10  1  0
  1  8  2  0
  1  9  1  0
 11 12  1  0
 12 13  2  0
 13 14  1  0
 14 15  2  0
 15 16  1  0
 11 16  2  0
 17 18  2  0
 18 19  1  0
 13 19  1  0
 14 17  1  0
 17 20  1  0
 18 21  1  0
 10 15  1  0
M  END
> <chembl_id>
CHEMBL3893094

> <chembl_pref_name>
None

$$$$
CHEMBL15985
     RDKit          2D

 20 23  0  0  0  0  0  0  0  0999 V2000
    2.7875   -3.3042    0.0000 N   0  0  0  0  0  0  0  0  0  0  0  0
    3.3125   -3.0000    0.0000 C   0  0  0  0  0  0  0  0  0  0  0  0
    3.3042   -2.4042    0.0000 C   0  0  0  0  0  0  0  0  0  0  0  0
    2.2750   -3.0042    0.0000 C   0  0  0  0  0  0  0  0  0  0  0  0
    2.2750   -2.4042    0.0000 N   0  0  0  0  0  0  0  0  0  0  0  0
    2.7875   -2.1042    0.0000 C   0  0  0  0  0  0  0  0  0  0  0  0
    3.8375   -2.0917    0.0000 N   0  0  0  0  0  0  0  0  0  0  0  0
    3.9292   -3.1542    0.0000 N   0  0  0  0  0  0  0  0  0  0  0  0
    4.3667   -2.6250    0.0000 C   0  0  0  0  0  0  0  0  0  0  0  0
    1.7542   -3.3000    0.0000 N   0  0  0  0  0  0  0  0  0  0  0  0
    2.2542   -4.7917    0.0000 C   0  0  0  0  0  0  0  0  0  0  0  0
    2.7792   -1.5042    0.0000 O   0  0  0  0  0  0  0  0  0  0  0  0
    1.7500   -3.9000    0.0000 C   0  0  0  0  0  0  0  0  0  0  0  0
    2.2542   -4.1917    0.0000 C   0  0  0  0  0  0  0  0  0  0  0  0
    1.7417   -5.0917    0.0000 C   0  0  0  0  0  0  0  0  0  0  0  0
    1.2167   -4.7917    0.0000 C   0  0  0  0  0  0  0  0  0  0  0  0
    1.2250   -4.1917    0.0000 C   0  0  0  0  0  0  0  0  0  0  0  0
    2.7042   -5.2000    0.0000 C   0  0  0  0  0  0  0  0  0  0  0  0
    2.4625   -5.7500    0.0000 C   0  0  0  0  0  0  0  0  0  0  0  0
    1.8667   -5.6792    0.0000 C   0  0  0  0  0  0  0  0  0  0  0  0
  2  1  1  0
  3  2  1  0
  4  1  2  0
  5  4  1  0
  6  5  1  0
  7  3  1  0
  8  2  2  0
  9  8  1  0
 10  4  1  0
 11 14  2  0
 12  6  1  0
 13 10  1  0
 14 13  1  0
 15 16  2  0
 16 17  1  0
 17 13  2  0
 18 11  1  0
 19 18  1  0
 20 15  1  0
  6  3  2  0
  7  9  2  0
 15 11  1  0
 19 20  1  0
M  END
> <chembl_id>
CHEMBL15985

> <chembl_pref_name>
None

$$$$
CHEMBL428647
     RDKit          2D

 63 69  0  0  1  0  0  0  0  0999 V2000
    7.8542   -4.9542    0.0000 C   0  0  0  0  0  0  0  0  0  0  0  0
    8.5667   -6.1875    0.0000 C   0  0  0  0  0  0  0  0  0  0  0  0
    6.2875   -6.4000    0.0000 C   0  0  0  0  0  0  0  0  0  0  0  0
    7.8542   -5.7792    0.0000 C   0  0  0  0  0  0  0  0  0  0  0  0
    6.2292   -4.9750    0.0000 C   0  0  0  0  0  0  0  0  0  0  0  0
    6.6667   -5.6667    0.0000 C   0  0  0  0  0  0  0  0  0  0  0  0
    7.4417   -4.2417    0.0000 C   0  0  0  0  0  0  0  0  0  0  0  0
    6.7250   -7.0917    0.0000 C   0  0  0  0  0  0  0  0  0  0  0  0
    6.6167   -4.2417    0.0000 C   0  0  0  0  0  0  0  0  0  0  0  0
    5.4042   -5.0042    0.0000 C   0  0  0  0  0  0  0  0  0  0  0  0
    5.4625   -6.4292    0.0000 C   0  0  0  0  0  0  0  0  0  0  0  0
    5.0167   -5.7292    0.0000 C   0  0  0  0  0  0  0  0  0  0  0  0
    3.4792   -5.3500    0.0000 C   0  0  0  0  0  0  0  0  0  0  0  0
    8.5667   -4.5417    0.0000 C   0  0  0  0  0  0  0  0  0  0  0  0
    2.7625   -5.7542    0.0000 C   0  0  0  0  0  0  0  0  0  0  0  0
    9.2792   -5.7792    0.0000 C   0  0  0  0  0  0  0  0  0  0  0  0
    2.0500   -4.5167    0.0000 N   0  0  0  0  0  0  0  0  0  0  0  0
    6.6625   -7.9167    0.0000 O   0  0  0  0  0  0  0  0  0  0  0  0
    2.0500   -5.3417    0.0000 C   0  0  0  0  0  0  0  0  0  0  0  0
    1.3292   -4.1042    0.0000 C   0  0  0  0  0  0  0  0  0  0  0  0
    5.9167   -8.2792    0.0000 C   0  0  0  0  0  0  0  0  0  0  0  0
    4.1917   -5.7625    0.0000 O   0  0  0  0  0  0  0  0  0  0  0  0
    8.9750   -6.9000    0.0000 C   0  0  0  0  0  0  0  0  0  0  0  0
    9.2792   -4.9542    0.0000 C   0  0  0  0  0  0  0  0  0  0  0  0
    8.3500   -6.9792    0.0000 O   0  0  0  0  0  0  0  0  0  0  0  0
    9.6875   -6.4917    0.0000 O   0  0  0  0  0  0  0  0  0  0  0  0
    6.2000   -3.5292    0.0000 O   0  0  0  0  0  0  0  0  0  0  0  0
    8.9292   -7.5667    0.0000 C   0  0  0  0  0  0  0  0  0  0  0  0
    6.6125   -2.8125    0.0000 C   0  0  0  0  0  0  0  0  0  0  0  0
    7.8542   -3.5292    0.0000 O   0  0  0  0  0  0  0  0  0  0  0  0
    3.4792   -4.5250    0.0000 O   0  0  0  0  0  0  0  0  0  0  0  0
    0.6167   -4.5167    0.0000 O   0  0  0  0  0  0  0  0  0  0  0  0
    5.2375   -7.8125    0.0000 O   0  0  0  0  0  0  0  0  0  0  0  0
    5.8667   -7.1125    0.0000 O   0  0  0  0  0  0  0  0  0  0  0  0
    1.3375   -3.2792    0.0000 C   0  0  0  0  0  0  0  0  0  0  0  0
    5.8542   -9.1000    0.0000 C   0  0  0  0  0  0  0  0  0  0  0  0
    1.3292   -5.7542    0.0000 C   0  0  0  0  0  0  0  0  0  0  0  0
    9.7292   -7.3542    0.0000 O   0  0  0  0  0  0  0  0  0  0  0  0
    7.4375   -2.8042    0.0000 O   0  0  0  0  0  0  0  0  0  0  0  0
    7.8500   -4.1292    0.0000 C   0  0  0  0  0  0  0  0  0  0  0  0
    2.7625   -6.5792    0.0000 O   0  0  0  0  0  0  0  0  0  0  0  0
    8.5667   -3.7167    0.0000 O   0  0  0  0  0  0  0  0  0  0  0  0
    7.0750   -4.9542    0.0000 C   0  0  0  0  0  0  0  0  0  0  0  0
    7.4625   -5.8792    0.0000 C   0  0  0  0  0  0  0  0  0  0  0  0
    4.9750   -4.3042    0.0000 C   0  0  0  0  0  0  0  0  0  0  0  0
    6.1917   -2.1000    0.0000 C   0  0  0  0  0  0  0  0  0  0  0  0
    8.7125   -8.3625    0.0000 C   0  0  0  0  0  0  0  0  0  0  0  0
    0.6250   -2.8750    0.0000 C   0  0  0  0  0  0  0  0  0  0  0  0
    6.5417   -9.5625    0.0000 C   0  0  0  0  0  0  0  0  0  0  0  0
    5.1167   -9.4542    0.0000 C   0  0  0  0  0  0  0  0  0  0  0  0
    2.0500   -2.8750    0.0000 C   0  0  0  0  0  0  0  0  0  0  0  0
    0.6167   -5.3417    0.0000 C   0  0  0  0  0  0  0  0  0  0  0  0
    1.3375   -6.5792    0.0000 C   0  0  0  0  0  0  0  0  0  0  0  0
    2.0542   -2.0500    0.0000 C   0  0  0  0  0  0  0  0  0  0  0  0
    0.6167   -2.0542    0.0000 C   0  0  0  0  0  0  0  0  0  0  0  0
    0.6250   -6.9917    0.0000 C   0  0  0  0  0  0  0  0  0  0  0  0
    5.0542  -10.2792    0.0000 C   0  0  0  0  0  0  0  0  0  0  0  0
    6.4792  -10.3792    0.0000 C   0  0  0  0  0  0  0  0  0  0  0  0
   -0.0958   -5.7542    0.0000 C   0  0  0  0  0  0  0  0  0  0  0  0
    1.3375   -1.6375    0.0000 C   0  0  0  0  0  0  0  0  0  0  0  0
   -0.0958   -6.5792    0.0000 C   0  0  0  0  0  0  0  0  0  0  0  0
    5.7375  -10.7417    0.0000 C   0  0  0  0  0  0  0  0  0  0  0  0
    7.8500   -6.6042    0.0000 H   0  0  0  0  0  0  0  0  0  0  0  0
  2  4  1  0
  3  8  1  0
  4  1  1  0
  5  9  1  0
  6  5  1  0
  7  1  1  0
  8  4  1  0
  9  7  1  0
 10  5  2  0
 11  3  1  0
 12 10  1  0
 13 22  1  0
 14  1  1  0
 15 13  1  0
 16 24  1  0
 19 17  1  6
  8 18  1  6
 19 15  1  0
 20 17  1  0
 21 18  1  0
 12 22  1  6
  2 23  1  1
 24 14  1  0
  2 25  1  6
 16 26  1  1
  9 27  1  1
 28 25  1  0
 29 27  1  0
 30  7  2  0
 31 13  2  0
 32 20  2  0
 33 21  2  0
  3 34  1  1
 35 20  1  0
 36 21  1  0
 37 19  1  0
 38 28  2  0
 39 29  2  0
  1 40  1  1
 15 41  1  6
 14 42  1  1
  6 43  1  0
  6 44  1  0
 45 10  1  0
 46 29  1  0
 47 28  1  0
 48 35  1  0
 49 36  1  0
 50 36  2  0
 51 35  2  0
 52 37  2  0
 53 37  1  0
 54 51  1  0
 55 48  2  0
 56 53  2  0
 57 50  1  0
 58 49  2  0
 59 52  1  0
 60 54  2  0
 61 56  1  0
 62 57  2  0
  4 63  1  6
 16  2  1  0
 23 26  1  0
  3  6  1  0
 11 12  1  0
 58 62  1  0
 59 61  2  0
 55 60  1  0
M  END
> <chembl_id>
CHEMBL428647

> <chembl_pref_name>
PACLITAXEL

$$$$
CHEMBL1385808
     RDKit          2D

 34 36  0  0  0  0  0  0  0  0999 V2000
    6.5261    1.2875    0.0000 O   0  0  0  0  0  0  0  0  0  0  0  0
    5.8116    1.7000    0.0000 O   0  0  0  0  0  0  0  0  0  0  0  0
    7.2406    1.7000    0.0000 O   0  0  0  0  0  0  0  0  0  0  0  0
    8.6695   -0.7750    0.0000 O   0  0  0  0  0  0  0  0  0  0  0  0
    4.3827    1.7000    0.0000 O   0  0  0  0  0  0  0  0  0  0  0  0
    9.3840    0.4625    0.0000 O   0  0  0  0  0  0  0  0  0  0  0  0
    2.9538    1.7000    0.0000 O   0  0  0  0  0  0  0  0  0  0  0  0
    7.2406   -1.6000    0.0000 N   0  0  0  0  0  0  0  0  0  0  0  0
    2.9538   -1.6000    0.0000 N   0  0  0  0  0  0  0  0  0  0  0  0
    8.6695    1.7000    0.0000 N   0  0  0  0  0  0  0  0  0  0  0  0
    6.5261    0.4625    0.0000 C   0  0  0  0  0  0  0  0  0  0  0  0
    6.5261   -0.3625    0.0000 C   0  0  0  0  0  0  0  0  0  0  0  0
    5.8116    0.8750    0.0000 C   0  0  0  0  0  0  0  0  0  0  0  0
    5.0972    0.4625    0.0000 C   0  0  0  0  0  0  0  0  0  0  0  0
    7.2406    0.8750    0.0000 C   0  0  0  0  0  0  0  0  0  0  0  0
    7.2406   -0.7750    0.0000 C   0  0  0  0  0  0  0  0  0  0  0  0
    5.0972   -0.3625    0.0000 C   0  0  0  0  0  0  0  0  0  0  0  0
    7.9551    0.4625    0.0000 C   0  0  0  0  0  0  0  0  0  0  0  0
    5.8116   -0.7750    0.0000 C   0  0  0  0  0  0  0  0  0  0  0  0
    7.9551   -0.3625    0.0000 C   0  0  0  0  0  0  0  0  0  0  0  0
    4.3827    0.8750    0.0000 C   0  0  0  0  0  0  0  0  0  0  0  0
    3.6682    0.4625    0.0000 C   0  0  0  0  0  0  0  0  0  0  0  0
    3.6682   -0.3625    0.0000 C   0  0  0  0  0  0  0  0  0  0  0  0
    4.3827   -0.7750    0.0000 C   0  0  0  0  0  0  0  0  0  0  0  0
    8.6695    0.8750    0.0000 C   0  0  0  0  0  0  0  0  0  0  0  0
    2.9538   -0.7750    0.0000 C   0  0  0  0  0  0  0  0  0  0  0  0
    2.9538    0.8750    0.0000 C   0  0  0  0  0  0  0  0  0  0  0  0
    2.2393   -0.3625    0.0000 C   0  0  0  0  0  0  0  0  0  0  0  0
    2.2393    0.4625    0.0000 C   0  0  0  0  0  0  0  0  0  0  0  0
    7.9551   -2.0125    0.0000 C   0  0  0  0  0  0  0  0  0  0  0  0
    6.5261   -2.0125    0.0000 C   0  0  0  0  0  0  0  0  0  0  0  0
    3.6682   -2.0125    0.0000 C   0  0  0  0  0  0  0  0  0  0  0  0
    2.2393   -2.0125    0.0000 C   0  0  0  0  0  0  0  0  0  0  0  0
    0.0000    0.0000    0.0000 Cl  0  0  0  0  0  0  0  0  0  0  0  0
 11  1  1  6
  2 13  2  0
  3 15  1  0
  4 20  2  0
  5 21  1  0
  6 25  2  0
  7 27  1  0
 16  8  1  6
  8 30  1  0
  8 31  1  0
  9 26  1  0
  9 32  1  0
  9 33  1  0
 10 25  1  0
 11 12  1  0
 11 13  1  0
 11 15  1  0
 12 16  1  0
 12 19  1  0
 13 14  1  0
 14 17  1  0
 14 21  2  0
 15 18  2  0
 16 20  1  0
 17 19  1  0
 17 24  1  0
 18 20  1  0
 18 25  1  0
 21 22  1  0
 22 23  1  0
 22 27  2  0
 23 24  1  0
 23 26  2  0
 26 28  1  0
 27 29  1  0
 28 29  2  0
M  END
> <chembl_id>
CHEMBL1385808

> <chembl_pref_name>
None

$$$$
CHEMBL3897847
     RDKit          2D

 19 21  0  0  0  0  0  0  0  0999 V2000
   12.8529  -18.3307    0.0000 C   0  0  0  0  0  0  0  0  0  0  0  0
   12.1429  -17.9238    0.0000 C   0  0  0  0  0  0  0  0  0  0  0  0
   11.4348  -18.3341    0.0000 N   0  0  0  0  0  0  0  0  0  0  0  0
   10.7288  -17.9272    0.0000 C   0  0  0  0  0  0  0  0  0  0  0  0
   10.7268  -17.1100    0.0000 C   0  0  0  0  0  0  0  0  0  0  0  0
   11.4349  -16.6997    0.0000 C   0  0  0  0  0  0  0  0  0  0  0  0
   12.1409  -17.1066    0.0000 C   0  0  0  0  0  0  0  0  0  0  0  0
   13.5610  -17.9245    0.0000 O   0  0  0  0  0  0  0  0  0  0  0  0
   12.8549  -19.1478    0.0000 N   0  0  0  0  0  0  0  0  0  0  0  0
   12.1468  -19.5582    0.0000 N   0  0  0  0  0  0  0  0  0  0  0  0
   12.8567  -21.5994    0.0000 C   0  0  0  0  0  0  0  0  0  0  0  0
   12.1486  -22.0097    0.0000 N   0  0  0  0  0  0  0  0  0  0  0  0
   11.4427  -21.6028    0.0000 C   0  0  0  0  0  0  0  0  0  0  0  0
   11.4407  -20.7857    0.0000 C   0  0  0  0  0  0  0  0  0  0  0  0
   12.1488  -20.3753    0.0000 C   0  0  0  0  0  0  0  0  0  0  0  0
   12.8547  -20.7822    0.0000 N   0  0  0  0  0  0  0  0  0  0  0  0
   10.6628  -20.5370    0.0000 C   0  0  0  0  0  0  0  0  0  0  0  0
   10.1843  -21.1973    0.0000 C   0  0  0  0  0  0  0  0  0  0  0  0
   10.6660  -21.8553    0.0000 S   0  0  0  0  0  0  0  0  0  0  0  0
  1  2  1  0
  2  3  1  0
  3  4  2  0
  4  5  1  0
  5  6  2  0
  6  7  1  0
  2  7  2  0
  9 10  1  0
  1  8  2  0
  1  9  1  0
 11 12  1  0
 12 13  2  0
 13 14  1  0
 14 15  2  0
 15 16  1  0
 11 16  2  0
 17 18  2  0
 18 19  1  0
 13 19  1  0
 14 17  1  0
 10 15  1  0
M  END
> <chembl_id>
CHEMBL3897847

> <chembl_pref_name>
None

$$$$
CHEMBL1336054
     RDKit          2D

 21 22  0  0  0  0  0  0  0  0999 V2000
    1.1297    0.3786    0.0000 O   0  0  0  0  0  0  0  0  0  0  0  0
    3.1173    1.6591    0.0000 O   0  0  0  0  0  0  0  0  0  0  0  0
   -0.3427    0.8328    0.0000 O   0  0  0  0  0  0  0  0  0  0  0  0
    1.6884    1.6591    0.0000 C   0  0  0  0  0  0  0  0  0  0  0  0
    1.0067    1.1944    0.0000 C   0  0  0  0  0  0  0  0  0  0  0  0
    2.4029    1.2466    0.0000 C   0  0  0  0  0  0  0  0  0  0  0  0
    0.2184    1.4376    0.0000 C   0  0  0  0  0  0  0  0  0  0  0  0
    3.1173   -0.8159    0.0000 C   0  0  0  0  0  0  0  0  0  0  0  0
    1.7500    2.4818    0.0000 C   0  0  0  0  0  0  0  0  0  0  0  0
    2.4029    0.4216    0.0000 C   0  0  0  0  0  0  0  0  0  0  0  0
    3.8318   -1.2284    0.0000 C   0  0  0  0  0  0  0  0  0  0  0  0
    3.1173    0.0091    0.0000 C   0  0  0  0  0  0  0  0  0  0  0  0
   -0.0830    2.2055    0.0000 C   0  0  0  0  0  0  0  0  0  0  0  0
    2.4029   -1.2284    0.0000 C   0  0  0  0  0  0  0  0  0  0  0  0
    3.8318   -2.0534    0.0000 C   0  0  0  0  0  0  0  0  0  0  0  0
    1.1453    3.0430    0.0000 C   0  0  0  0  0  0  0  0  0  0  0  0
    3.1173   -2.4659    0.0000 C   0  0  0  0  0  0  0  0  0  0  0  0
    0.3295    2.9200    0.0000 C   0  0  0  0  0  0  0  0  0  0  0  0
    2.4029   -2.0534    0.0000 C   0  0  0  0  0  0  0  0  0  0  0  0
    4.5463   -0.8159    0.0000 C   0  0  0  0  0  0  0  0  0  0  0  0
    3.1173   -3.2909    0.0000 C   0  0  0  0  0  0  0  0  0  0  0  0
  1  5  1  0
  2  6  2  0
  3  7  2  0
  4  5  2  0
  4  6  1  0
  4  9  1  0
  5  7  1  0
  6 10  1  0
  7 13  1  0
  8 11  1  0
  8 12  1  0
  8 14  2  0
  9 16  2  0
 10 12  2  0
 11 15  2  0
 11 20  1  0
 13 18  2  0
 14 19  1  0
 15 17  1  0
 16 18  1  0
 17 19  2  0
 17 21  1  0
M  END
> <chembl_id>
CHEMBL1336054

> <chembl_pref_name>
None

$$$$
CHEMBL485294
     RDKit          2D

 27 30  0  0  0  0  0  0  0  0999 V2000
    4.6789  -12.9626    0.0000 C   0  0  0  0  0  0  0  0  0  0  0  0
    4.6777  -13.7895    0.0000 C   0  0  0  0  0  0  0  0  0  0  0  0
    5.3922  -14.2020    0.0000 C   0  0  0  0  0  0  0  0  0  0  0  0
    5.3904  -12.5501    0.0000 C   0  0  0  0  0  0  0  0  0  0  0  0
    6.1052  -12.9590    0.0000 C   0  0  0  0  0  0  0  0  0  0  0  0
    6.1040  -13.7915    0.0000 C   0  0  0  0  0  0  0  0  0  0  0  0
    6.8205  -14.2065    0.0000 N   0  0  0  0  0  0  0  0  0  0  0  0
    6.8229  -12.5415    0.0000 C   0  0  0  0  0  0  0  0  0  0  0  0
    7.5439  -12.9610    0.0000 C   0  0  0  0  0  0  0  0  0  0  0  0
    7.5426  -13.7895    0.0000 C   0  0  0  0  0  0  0  0  0  0  0  0
    8.2583  -14.2029    0.0000 C   0  0  0  0  0  0  0  0  0  0  0  0
    8.9757  -13.7892    0.0000 C   0  0  0  0  0  0  0  0  0  0  0  0
    8.9729  -12.9576    0.0000 C   0  0  0  0  0  0  0  0  0  0  0  0
    8.2568  -12.5479    0.0000 C   0  0  0  0  0  0  0  0  0  0  0  0
    6.8230  -11.7170    0.0000 O   0  0  0  0  0  0  0  0  0  0  0  0
    8.2580  -15.0274    0.0000 C   0  0  0  0  0  0  0  0  0  0  0  0
    7.5437  -15.4393    0.0000 O   0  0  0  0  0  0  0  0  0  0  0  0
    8.9718  -15.4399    0.0000 N   0  0  0  0  0  0  0  0  0  0  0  0
    8.9714  -16.2644    0.0000 C   0  0  0  0  0  0  0  0  0  0  0  0
    8.2573  -16.6764    0.0000 C   0  0  0  0  0  0  0  0  0  0  0  0
    8.2570  -17.5008    0.0000 C   0  0  0  0  0  0  0  0  0  0  0  0
    7.5427  -17.9128    0.0000 N   0  0  0  0  0  0  0  0  0  0  0  0
    6.8332  -17.4982    0.0000 C   0  0  0  0  0  0  0  0  0  0  0  0
    6.1211  -17.9067    0.0000 C   0  0  0  0  0  0  0  0  0  0  0  0
    6.1165  -18.7316    0.0000 O   0  0  0  0  0  0  0  0  0  0  0  0
    6.8302  -19.1463    0.0000 C   0  0  0  0  0  0  0  0  0  0  0  0
    7.5484  -18.7362    0.0000 C   0  0  0  0  0  0  0  0  0  0  0  0
 12 13  1  0
  3  6  2  0
 13 14  2  0
 14  9  1  0
  1  2  2  0
  8 15  2  0
  5  8  1  0
 11 16  1  0
  6  7  1  0
 16 17  2  0
  7 10  1  0
 16 18  1  0
  9  8  1  0
 18 19  1  0
  5  4  2  0
 19 20  1  0
  4  1  1  0
 20 21  1  0
  9 10  2  0
 21 22  1  0
 22 23  1  0
  5  6  1  0
 10 11  1  0
 11 12  2  0
  2  3  1  0
 22 27  1  0
 23 24  1  0
 24 25  1  0
 25 26  1  0
 26 27  1  0
M  END
> <chembl_id>
CHEMBL485294

> <chembl_pref_name>
None

$$$$
CHEMBL3934190
     RDKit          2D

 22 25  0  0  0  0  0  0  0  0999 V2000
   17.6817  -12.0040    0.0000 C   0  0  0  0  0  0  0  0  0  0  0  0
   16.9727  -11.5954    0.0000 C   0  0  0  0  0  0  0  0  0  0  0  0
   16.2636  -12.0040    0.0000 N   0  0  0  0  0  0  0  0  0  0  0  0
   15.5586  -11.5954    0.0000 C   0  0  0  0  0  0  0  0  0  0  0  0
   15.5586  -10.7783    0.0000 C   0  0  0  0  0  0  0  0  0  0  0  0
   16.2636  -10.3697    0.0000 C   0  0  0  0  0  0  0  0  0  0  0  0
   16.9727  -10.7783    0.0000 C   0  0  0  0  0  0  0  0  0  0  0  0
   18.3908  -11.5954    0.0000 O   0  0  0  0  0  0  0  0  0  0  0  0
   17.6817  -12.8212    0.0000 N   0  0  0  0  0  0  0  0  0  0  0  0
   16.9727  -13.2298    0.0000 N   0  0  0  0  0  0  0  0  0  0  0  0
   17.6817  -15.2728    0.0000 C   0  0  0  0  0  0  0  0  0  0  0  0
   16.9727  -15.6814    0.0000 N   0  0  0  0  0  0  0  0  0  0  0  0
   16.2636  -15.2728    0.0000 C   0  0  0  0  0  0  0  0  0  0  0  0
   16.2636  -14.4556    0.0000 C   0  0  0  0  0  0  0  0  0  0  0  0
   16.9727  -14.0470    0.0000 C   0  0  0  0  0  0  0  0  0  0  0  0
   17.6817  -14.4556    0.0000 N   0  0  0  0  0  0  0  0  0  0  0  0
   15.4863  -14.2051    0.0000 C   0  0  0  0  0  0  0  0  0  0  0  0
   15.0103  -14.8642    0.0000 C   0  0  0  0  0  0  0  0  0  0  0  0
   15.4863  -15.5275    0.0000 S   0  0  0  0  0  0  0  0  0  0  0  0
   14.2290  -14.6137    0.0000 C   0  0  0  0  0  0  0  0  0  0  0  0
   14.2290  -13.7965    0.0000 C   0  0  0  0  0  0  0  0  0  0  0  0
   15.0103  -13.5418    0.0000 C   0  0  0  0  0  0  0  0  0  0  0  0
  1  2  1  0
  2  3  1  0
  3  4  2  0
  4  5  1  0
  5  6  2  0
  6  7  1  0
  2  7  2  0
  9 10  1  0
  1  8  2  0
  1  9  1  0
 11 12  1  0
 12 13  2  0
 13 14  1  0
 14 15  2  0
 15 16  1  0
 11 16  2  0
 17 18  2  0
 18 19  1  0
 20 21  1  0
 21 22  1  0
 17 22  1  0
 18 20  1  0
 13 19  1  0
 14 17  1  0
 10 15  1  0
M  END
> <chembl_id>
CHEMBL3934190

> <chembl_pref_name>
None

$$$$
CHEMBL1822708
     RDKit          2D

 63 72  0  0  0  0  0  0  0  0999 V2000
    1.8441   -7.2168    0.0000 C   0  0  0  0  0  0  0  0  0  0  0  0
    1.8370   -6.3918    0.0000 O   0  0  0  0  0  0  0  0  0  0  0  0
    2.5621   -7.6231    0.0000 N   0  0  0  0  0  0  0  0  0  0  0  0
    3.2730   -7.2045    0.0000 C   0  0  0  0  0  0  0  0  0  0  0  0
    3.9910   -7.6113    0.0000 C   0  0  0  0  0  0  0  0  0  0  0  0
    3.9652   -8.4327    0.0000 N   0  0  0  0  0  0  0  0  0  0  0  0
    4.7836   -7.3781    0.0000 N   0  0  0  0  0  0  0  0  0  0  0  0
    5.2473   -8.0605    0.0000 C   0  0  0  0  0  0  0  0  0  0  0  0
    4.7405   -8.7089    0.0000 C   0  0  0  0  0  0  0  0  0  0  0  0
    5.0489   -9.4699    0.0000 C   0  0  0  0  0  0  0  0  0  0  0  0
    5.8636   -9.5837    0.0000 C   0  0  0  0  0  0  0  0  0  0  0  0
    6.3693   -8.9300    0.0000 C   0  0  0  0  0  0  0  0  0  0  0  0
    6.0582   -8.1719    0.0000 C   0  0  0  0  0  0  0  0  0  0  0  0
    7.1932   -8.9247    0.0000 C   0  0  0  0  0  0  0  0  0  0  0  0
    7.6803   -9.5906    0.0000 N   0  0  0  0  0  0  0  0  0  0  0  0
    7.6761   -8.2557    0.0000 N   0  0  0  0  0  0  0  0  0  0  0  0
    8.4615   -8.5081    0.0000 C   0  0  0  0  0  0  0  0  0  0  0  0
    8.4627   -9.3311    0.0000 C   0  0  0  0  0  0  0  0  0  0  0  0
    9.1747   -9.7400    0.0000 C   0  0  0  0  0  0  0  0  0  0  0  0
    9.8863   -9.3270    0.0000 C   0  0  0  0  0  0  0  0  0  0  0  0
    9.8813   -8.5008    0.0000 C   0  0  0  0  0  0  0  0  0  0  0  0
    9.1687   -8.0957    0.0000 C   0  0  0  0  0  0  0  0  0  0  0  0
   10.5926   -8.0843    0.0000 N   0  0  0  0  0  0  0  0  0  0  0  0
   11.3095   -8.4945    0.0000 C   0  0  0  0  0  0  0  0  0  0  0  0
   12.0193   -8.0809    0.0000 C   0  0  0  0  0  0  0  0  0  0  0  0
   12.0183   -7.2555    0.0000 N   0  0  0  0  0  0  0  0  0  0  0  0
   11.3014   -6.8453    0.0000 C   0  0  0  0  0  0  0  0  0  0  0  0
   10.5854   -7.2605    0.0000 C   0  0  0  0  0  0  0  0  0  0  0  0
   12.7318   -6.8412    0.0000 C   0  0  0  0  0  0  0  0  0  0  0  0
  -10.6447   -8.3278    0.0000 C   0  0  0  0  0  0  0  0  0  0  0  0
  -10.6435   -9.1310    0.0000 C   0  0  0  0  0  0  0  0  0  0  0  0
   -9.9513   -9.5319    0.0000 C   0  0  0  0  0  0  0  0  0  0  0  0
   -9.9579   -7.9269    0.0000 C   0  0  0  0  0  0  0  0  0  0  0  0
   -9.2619   -8.3242    0.0000 C   0  0  0  0  0  0  0  0  0  0  0  0
   -9.2582   -9.1310    0.0000 C   0  0  0  0  0  0  0  0  0  0  0  0
   -8.4858   -9.3775    0.0000 N   0  0  0  0  0  0  0  0  0  0  0  0
   -8.0139   -8.7204    0.0000 C   0  0  0  0  0  0  0  0  0  0  0  0
   -8.4948   -8.0730    0.0000 N   0  0  0  0  0  0  0  0  0  0  0  0
  -11.3686   -7.9116    0.0000 N   0  0  0  0  0  0  0  0  0  0  0  0
  -11.3703   -7.0775    0.0000 C   0  0  0  0  0  0  0  0  0  0  0  0
  -12.0852   -6.6612    0.0000 C   0  0  0  0  0  0  0  0  0  0  0  0
  -12.8104   -7.0744    0.0000 N   0  0  0  0  0  0  0  0  0  0  0  0
  -12.8086   -7.9085    0.0000 C   0  0  0  0  0  0  0  0  0  0  0  0
  -12.0900   -8.3293    0.0000 C   0  0  0  0  0  0  0  0  0  0  0  0
  -13.5267   -6.6554    0.0000 C   0  0  0  0  0  0  0  0  0  0  0  0
   -7.1867   -8.7126    0.0000 C   0  0  0  0  0  0  0  0  0  0  0  0
   -6.7651   -9.4344    0.0000 C   0  0  0  0  0  0  0  0  0  0  0  0
   -5.9277   -9.4299    0.0000 C   0  0  0  0  0  0  0  0  0  0  0  0
   -6.7712   -7.9940    0.0000 C   0  0  0  0  0  0  0  0  0  0  0  0
   -5.9397   -7.9860    0.0000 C   0  0  0  0  0  0  0  0  0  0  0  0
   -5.5146   -8.7040    0.0000 C   0  0  0  0  0  0  0  0  0  0  0  0
   -4.6974   -8.5241    0.0000 N   0  0  0  0  0  0  0  0  0  0  0  0
   -4.6184   -7.6910    0.0000 C   0  0  0  0  0  0  0  0  0  0  0  0
   -5.3867   -7.3569    0.0000 N   0  0  0  0  0  0  0  0  0  0  0  0
   -3.8997   -7.2678    0.0000 C   0  0  0  0  0  0  0  0  0  0  0  0
   -3.1734   -7.6777    0.0000 N   0  0  0  0  0  0  0  0  0  0  0  0
   -2.4588   -7.2545    0.0000 C   0  0  0  0  0  0  0  0  0  0  0  0
   -2.4665   -6.4215    0.0000 O   0  0  0  0  0  0  0  0  0  0  0  0
   -1.7325   -7.6643    0.0000 C   0  0  0  0  0  0  0  0  0  0  0  0
   -1.0138   -7.2412    0.0000 C   0  0  0  0  0  0  0  0  0  0  0  0
   -0.2958   -7.6476    0.0000 C   0  0  0  0  0  0  0  0  0  0  0  0
    0.4151   -7.2290    0.0000 C   0  0  0  0  0  0  0  0  0  0  0  0
    1.1332   -7.6354    0.0000 C   0  0  0  0  0  0  0  0  0  0  0  0
  6  9  1  0
  8  7  1  0
 30 31  2  0
  7  5  1  0
 31 32  1  0
 32 35  2  0
 15 18  1  0
 34 33  2  0
 33 30  1  0
 34 35  1  0
 17 16  1  0
 16 14  1  0
 12 14  1  0
  3  4  1  0
 35 36  1  0
 36 37  2  0
 37 38  1  0
 38 34  1  0
 39 40  1  0
 17 18  2  0
  8  9  2  0
 18 19  1  0
  4  5  1  0
 19 20  2  0
  9 10  1  0
 39 44  1  0
 40 41  1  0
 41 42  1  0
 42 43  1  0
 43 44  1  0
 30 39  1  0
 20 21  1  0
 42 45  1  0
  5  6  2  0
 21 22  2  0
 46 47  2  0
 22 17  1  0
 47 48  1  0
 48 51  2  0
 23 24  1  0
 50 49  2  0
 49 46  1  0
 37 46  1  0
 50 51  1  0
 10 11  2  0
  1  3  1  0
 11 12  1  0
  1  2  2  0
 12 13  2  0
 51 52  1  0
 52 53  2  0
 53 54  1  0
 54 50  1  0
 13  8  1  0
 53 55  1  0
 23 28  1  0
 55 56  1  0
 24 25  1  0
 56 57  1  0
 25 26  1  0
 57 58  2  0
 26 27  1  0
 57 59  1  0
 27 28  1  0
 59 60  1  0
 21 23  1  0
 60 61  1  0
 14 15  2  0
 61 62  1  0
 26 29  1  0
 62 63  1  0
 63  1  1  0
M  END
> <chembl_id>
CHEMBL1822708

> <chembl_pref_name>
None

$$$$
CHEMBL1771800
     RDKit          2D

 24 26  0  0  0  0  0  0  0  0999 V2000
   -2.2846  -24.7772    0.0000 C   0  0  0  0  0  0  0  0  0  0  0  0
   -2.2857  -25.6046    0.0000 C   0  0  0  0  0  0  0  0  0  0  0  0
   -1.5710  -26.0175    0.0000 C   0  0  0  0  0  0  0  0  0  0  0  0
   -1.5728  -24.3646    0.0000 C   0  0  0  0  0  0  0  0  0  0  0  0
   -0.8574  -24.7736    0.0000 C   0  0  0  0  0  0  0  0  0  0  0  0
   -0.8586  -25.6067    0.0000 C   0  0  0  0  0  0  0  0  0  0  0  0
   -0.1418  -26.0219    0.0000 N   0  0  0  0  0  0  0  0  0  0  0  0
    0.5808  -25.6087    0.0000 C   0  0  0  0  0  0  0  0  0  0  0  0
    0.5820  -24.7757    0.0000 C   0  0  0  0  0  0  0  0  0  0  0  0
   -0.1394  -24.3559    0.0000 C   0  0  0  0  0  0  0  0  0  0  0  0
    1.2940  -26.0233    0.0000 C   0  0  0  0  0  0  0  0  0  0  0  0
   -0.1394  -23.5309    0.0000 N   0  0  0  0  0  0  0  0  0  0  0  0
    0.5751  -23.1185    0.0000 N   0  0  0  0  0  0  0  0  0  0  0  0
    1.2894  -23.5310    0.0000 C   0  0  0  0  0  0  0  0  0  0  0  0
    2.0038  -23.1186    0.0000 C   0  0  0  0  0  0  0  0  0  0  0  0
    2.7148  -23.5320    0.0000 N   0  0  0  0  0  0  0  0  0  0  0  0
    3.4287  -23.1204    0.0000 C   0  0  0  0  0  0  0  0  0  0  0  0
    3.4291  -22.2945    0.0000 C   0  0  0  0  0  0  0  0  0  0  0  0
    2.7098  -21.8822    0.0000 N   0  0  0  0  0  0  0  0  0  0  0  0
    1.9988  -22.2963    0.0000 C   0  0  0  0  0  0  0  0  0  0  0  0
    1.2894  -24.3560    0.0000 O   0  0  0  0  0  0  0  0  0  0  0  0
   -2.9991  -24.3650    0.0000 O   0  0  0  0  0  0  0  0  0  0  0  0
   -3.7134  -24.7776    0.0000 C   0  0  0  0  0  0  0  0  0  0  0  0
   -4.4280  -24.3653    0.0000 C   0  0  0  0  0  0  0  0  0  0  0  0
 10 12  1  0
  2  3  1  0
 12 13  1  0
  3  6  2  0
 13 14  1  0
  1  2  2  0
 14 15  1  0
  5  4  2  0
 15 16  2  0
  4  1  1  0
 16 17  1  0
  5 10  1  0
 17 18  2  0
  6  7  1  0
 18 19  1  0
  7  8  2  0
 19 20  2  0
 20 15  1  0
  8  9  1  0
 14 21  2  0
  9 10  2  0
  1 22  1  0
  5  6  1  0
 22 23  1  0
  8 11  1  0
 23 24  1  0
M  END
> <chembl_id>
CHEMBL1771800

> <chembl_pref_name>
None

$$$$
CHEMBL4073008
     RDKit          2D

 36 38  0  0  0  0  0  0  0  0999 V2000
    3.8548  -14.4247    0.0000 O   0  0  0  0  0  0  0  0  0  0  0  0
    4.2676  -15.1345    0.0000 S   0  0  0  0  0  0  0  0  0  0  0  0
    4.6760  -14.4222    0.0000 O   0  0  0  0  0  0  0  0  0  0  0  0
   13.1576  -17.4706    0.0000 O   0  0  0  0  0  0  0  0  0  0  0  0
   12.7531  -16.7648    0.0000 S   0  0  0  0  0  0  0  0  0  0  0  0
   12.3442  -17.4680    0.0000 O   0  0  0  0  0  0  0  0  0  0  0  0
    7.8087  -15.5349    0.0000 N   0  0  0  0  0  0  0  0  0  0  0  0
    7.8087  -16.3521    0.0000 C   0  0  0  0  0  0  0  0  0  0  0  0
    8.5140  -16.7565    0.0000 C   0  0  0  0  0  0  0  0  0  0  0  0
    9.2193  -16.3521    0.0000 N   0  0  0  0  0  0  0  0  0  0  0  0
    9.2193  -15.5349    0.0000 C   0  0  0  0  0  0  0  0  0  0  0  0
    8.5140  -15.1222    0.0000 C   0  0  0  0  0  0  0  0  0  0  0  0
    9.9264  -16.7617    0.0000 C   0  0  0  0  0  0  0  0  0  0  0  0
   10.6347  -16.3541    0.0000 C   0  0  0  0  0  0  0  0  0  0  0  0
   11.3418  -16.7638    0.0000 C   0  0  0  0  0  0  0  0  0  0  0  0
   12.0501  -16.3562    0.0000 N   0  0  0  0  0  0  0  0  0  0  0  0
   13.4655  -16.3582    0.0000 C   0  0  0  0  0  0  0  0  0  0  0  0
    7.0998  -15.1284    0.0000 C   0  0  0  0  0  0  0  0  0  0  0  0
    6.3933  -15.5390    0.0000 C   0  0  0  0  0  0  0  0  0  0  0  0
    5.6844  -15.1325    0.0000 C   0  0  0  0  0  0  0  0  0  0  0  0
    4.9779  -15.5432    0.0000 N   0  0  0  0  0  0  0  0  0  0  0  0
    3.5625  -15.5473    0.0000 C   0  0  0  0  0  0  0  0  0  0  0  0
    2.8544  -15.1373    0.0000 C   0  0  0  0  0  0  0  0  0  0  0  0
    2.1484  -15.5473    0.0000 C   0  0  0  0  0  0  0  0  0  0  0  0
    2.1503  -16.3654    0.0000 C   0  0  0  0  0  0  0  0  0  0  0  0
    2.8642  -16.7717    0.0000 C   0  0  0  0  0  0  0  0  0  0  0  0
    3.5673  -16.3594    0.0000 C   0  0  0  0  0  0  0  0  0  0  0  0
   14.1692  -16.7719    0.0000 C   0  0  0  0  0  0  0  0  0  0  0  0
   14.8770  -16.3650    0.0000 C   0  0  0  0  0  0  0  0  0  0  0  0
   14.8786  -15.5470    0.0000 C   0  0  0  0  0  0  0  0  0  0  0  0
   14.1665  -15.1375    0.0000 C   0  0  0  0  0  0  0  0  0  0  0  0
   13.4616  -15.5467    0.0000 C   0  0  0  0  0  0  0  0  0  0  0  0
   15.5864  -15.1385    0.0000 C   0  0  0  0  0  0  0  0  0  0  0  0
   16.2940  -15.5471    0.0000 F   0  0  0  0  0  0  0  0  0  0  0  0
   15.5865  -14.3213    0.0000 F   0  0  0  0  0  0  0  0  0  0  0  0
   16.2902  -14.7218    0.0000 F   0  0  0  0  0  0  0  0  0  0  0  0
  2  1  2  0
  3  2  2  0
  5  4  2  0
  6  5  2  0
  7  8  1  0
  7 12  1  0
  8  9  1  0
  9 10  1  0
 10 11  1  0
 11 12  1  0
 10 13  1  0
 13 14  1  0
 14 15  1  0
 15 16  1  0
 16  5  1  0
  5 17  1  0
  7 18  1  0
 18 19  1  0
 19 20  1  0
 20 21  1  0
 21  2  1  0
  2 22  1  0
 22 23  2  0
 23 24  1  0
 24 25  2  0
 25 26  1  0
 26 27  2  0
 27 22  1  0
 17 28  2  0
 28 29  1  0
 29 30  2  0
 30 31  1  0
 31 32  2  0
 32 17  1  0
 30 33  1  0
 33 34  1  0
 33 35  1  0
 33 36  1  0
M  END
> <chembl_id>
CHEMBL4073008

> <chembl_pref_name>
None

$$$$
CHEMBL1771803
     RDKit          2D

 28 31  0  0  0  0  0  0  0  0999 V2000
    6.4939   -1.1310    0.0000 C   0  0  0  0  0  0  0  0  0  0  0  0
    6.4927   -1.9568    0.0000 C   0  0  0  0  0  0  0  0  0  0  0  0
    7.2062   -2.3688    0.0000 C   0  0  0  0  0  0  0  0  0  0  0  0
    7.2044   -0.7191    0.0000 C   0  0  0  0  0  0  0  0  0  0  0  0
    7.9183   -1.1274    0.0000 C   0  0  0  0  0  0  0  0  0  0  0  0
    7.9171   -1.9588    0.0000 C   0  0  0  0  0  0  0  0  0  0  0  0
    8.6325   -2.3733    0.0000 N   0  0  0  0  0  0  0  0  0  0  0  0
    8.6349   -0.7105    0.0000 C   0  0  0  0  0  0  0  0  0  0  0  0
    5.7793   -2.3679    0.0000 O   0  0  0  0  0  0  0  0  0  0  0  0
    5.0667   -1.9556    0.0000 C   0  0  0  0  0  0  0  0  0  0  0  0
    4.3533   -2.3668    0.0000 C   0  0  0  0  0  0  0  0  0  0  0  0
    8.6350    0.1129    0.0000 N   0  0  0  0  0  0  0  0  0  0  0  0
    9.3481    0.5246    0.0000 N   0  0  0  0  0  0  0  0  0  0  0  0
    9.3550   -1.1294    0.0000 C   0  0  0  0  0  0  0  0  0  0  0  0
    9.3519   -1.9630    0.0000 C   0  0  0  0  0  0  0  0  0  0  0  0
   10.0683   -2.3799    0.0000 C   0  0  0  0  0  0  0  0  0  0  0  0
   10.7922   -1.9682    0.0000 C   0  0  0  0  0  0  0  0  0  0  0  0
   10.7952   -1.1347    0.0000 C   0  0  0  0  0  0  0  0  0  0  0  0
   10.0743   -0.7131    0.0000 C   0  0  0  0  0  0  0  0  0  0  0  0
    9.3481    1.3479    0.0000 S   0  0  0  0  0  0  0  0  0  0  0  0
   10.0612    1.7596    0.0000 C   0  0  0  0  0  0  0  0  0  0  0  0
    9.3438    2.1748    0.0000 O   0  0  0  0  0  0  0  0  0  0  0  0
    8.5246    1.3556    0.0000 O   0  0  0  0  0  0  0  0  0  0  0  0
   10.7696    1.3449    0.0000 C   0  0  0  0  0  0  0  0  0  0  0  0
   11.4821    1.7558    0.0000 C   0  0  0  0  0  0  0  0  0  0  0  0
   11.4826    2.5800    0.0000 C   0  0  0  0  0  0  0  0  0  0  0  0
   10.7646    2.9916    0.0000 C   0  0  0  0  0  0  0  0  0  0  0  0
   10.0550    2.5782    0.0000 C   0  0  0  0  0  0  0  0  0  0  0  0
 12 13  1  0
 14 15  1  0
  3  6  2  0
  1  2  2  0
  5  8  1  0
  6  7  1  0
  7 15  2  0
 14  8  2  0
 14 19  1  0
 15 16  1  0
 16 17  1  0
 17 18  1  0
 18 19  1  0
  5  4  2  0
 13 20  1  0
  2  9  1  0
 20 21  1  0
  4  1  1  0
 20 22  2  0
  9 10  1  0
 20 23  2  0
  5  6  1  0
 21 24  2  0
 10 11  1  0
 24 25  1  0
 25 26  2  0
  8 12  1  0
 26 27  1  0
  2  3  1  0
 27 28  2  0
 28 21  1  0
M  END
> <chembl_id>
CHEMBL1771803

> <chembl_pref_name>
None

$$$$
CHEMBL2059080
     RDKit          2D

 33 36  0  0  0  0  0  0  0  0999 V2000
    7.5284  -11.1515    0.0000 C   0  0  0  0  0  0  0  0  0  0  0  0
    7.5284  -11.9765    0.0000 C   0  0  0  0  0  0  0  0  0  0  0  0
    8.2409  -12.3869    0.0000 C   0  0  0  0  0  0  0  0  0  0  0  0
    8.9534  -11.9765    0.0000 C   0  0  0  0  0  0  0  0  0  0  0  0
    8.9534  -11.1515    0.0000 C   0  0  0  0  0  0  0  0  0  0  0  0
    8.2409  -10.7370    0.0000 O   0  0  0  0  0  0  0  0  0  0  0  0
    6.8163  -10.7432    0.0000 O   0  0  0  0  0  0  0  0  0  0  0  0
    6.1037  -11.1515    0.0000 C   0  0  0  0  0  0  0  0  0  0  0  0
    6.1048  -11.9788    0.0000 C   0  0  0  0  0  0  0  0  0  0  0  0
    5.3895  -12.3938    0.0000 C   0  0  0  0  0  0  0  0  0  0  0  0
    5.3913  -10.7408    0.0000 C   0  0  0  0  0  0  0  0  0  0  0  0
    4.6754  -11.1479    0.0000 C   0  0  0  0  0  0  0  0  0  0  0  0
    4.6766  -11.9763    0.0000 C   0  0  0  0  0  0  0  0  0  0  0  0
    3.9630  -12.3913    0.0000 C   0  0  0  0  0  0  0  0  0  0  0  0
    3.2439  -11.9783    0.0000 C   0  0  0  0  0  0  0  0  0  0  0  0
    3.2427  -11.1499    0.0000 C   0  0  0  0  0  0  0  0  0  0  0  0
    3.9607  -10.7345    0.0000 O   0  0  0  0  0  0  0  0  0  0  0  0
    3.9654  -13.2163    0.0000 O   0  0  0  0  0  0  0  0  0  0  0  0
    2.5267  -10.7412    0.0000 C   0  0  0  0  0  0  0  0  0  0  0  0
    2.5296   -9.9152    0.0000 C   0  0  0  0  0  0  0  0  0  0  0  0
    1.8145   -9.5025    0.0000 C   0  0  0  0  0  0  0  0  0  0  0  0
    1.1036   -9.9188    0.0000 C   0  0  0  0  0  0  0  0  0  0  0  0
    1.1083  -10.7481    0.0000 C   0  0  0  0  0  0  0  0  0  0  0  0
    1.8198  -11.1529    0.0000 C   0  0  0  0  0  0  0  0  0  0  0  0
    0.3870   -9.5069    0.0000 O   0  0  0  0  0  0  0  0  0  0  0  0
    0.3840   -8.6820    0.0000 C   0  0  0  0  0  0  0  0  0  0  0  0
    1.8129   -8.6775    0.0000 O   0  0  0  0  0  0  0  0  0  0  0  0
    5.3879  -13.2187    0.0000 O   0  0  0  0  0  0  0  0  0  0  0  0
    9.6697  -10.7432    0.0000 C   0  0  0  0  0  0  0  0  0  0  0  0
   10.3834  -11.1557    0.0000 O   0  0  0  0  0  0  0  0  0  0  0  0
    6.8181  -12.3921    0.0000 O   0  0  0  0  0  0  0  0  0  0  0  0
    9.6679  -12.3921    0.0000 O   0  0  0  0  0  0  0  0  0  0  0  0
    8.2409  -13.2119    0.0000 O   0  0  0  0  0  0  0  0  0  0  0  0
 14 15  1  0
 15 16  2  0
 16 17  1  0
  8  9  2  0
 14 18  2  0
  2  3  1  0
 16 19  1  0
  9 10  1  0
 19 20  2  0
 10 13  2  0
 20 21  1  0
  3  4  1  0
 21 22  2  0
 12 11  2  0
 22 23  1  0
 11  8  1  0
 23 24  2  0
 24 19  1  0
 12 13  1  0
 22 25  1  0
  4  5  1  0
 25 26  1  0
  5  6  1  0
 21 27  1  0
 10 28  1  0
  8  7  1  0
  1  7  1  1
  5 29  1  1
  1  2  1  0
 29 30  1  0
  1  6  1  0
  2 31  1  6
 12 17  1  0
  4 32  1  6
 13 14  1  0
  3 33  1  1
M  END
> <chembl_id>
CHEMBL2059080

> <chembl_pref_name>
None

$$$$
CHEMBL4075563
     RDKit          2D

 34 36  0  0  0  0  0  0  0  0999 V2000
    5.2003  -20.0969    0.0000 O   0  0  0  0  0  0  0  0  0  0  0  0
    4.7919  -19.3844    0.0000 S   0  0  0  0  0  0  0  0  0  0  0  0
    4.3790  -20.0943    0.0000 O   0  0  0  0  0  0  0  0  0  0  0  0
   12.9465  -17.0217    0.0000 O   0  0  0  0  0  0  0  0  0  0  0  0
   13.3632  -17.7385    0.0000 S   0  0  0  0  0  0  0  0  0  0  0  0
   13.7755  -17.0192    0.0000 O   0  0  0  0  0  0  0  0  0  0  0  0
    8.3672  -18.1427    0.0000 C   0  0  0  0  0  0  0  0  0  0  0  0
    8.3672  -18.9677    0.0000 N   0  0  0  0  0  0  0  0  0  0  0  0
    9.0792  -19.3761    0.0000 C   0  0  0  0  0  0  0  0  0  0  0  0
    9.7912  -18.9677    0.0000 C   0  0  0  0  0  0  0  0  0  0  0  0
    9.7912  -18.1427    0.0000 N   0  0  0  0  0  0  0  0  0  0  0  0
    9.0792  -17.7259    0.0000 C   0  0  0  0  0  0  0  0  0  0  0  0
   10.5069  -17.7322    0.0000 C   0  0  0  0  0  0  0  0  0  0  0  0
   11.2202  -18.1469    0.0000 C   0  0  0  0  0  0  0  0  0  0  0  0
   11.9359  -17.7364    0.0000 C   0  0  0  0  0  0  0  0  0  0  0  0
   12.6493  -18.1510    0.0000 N   0  0  0  0  0  0  0  0  0  0  0  0
   14.0783  -18.1552    0.0000 C   0  0  0  0  0  0  0  0  0  0  0  0
   14.0705  -18.9813    0.0000 C   0  0  0  0  0  0  0  0  0  0  0  0
   14.7830  -19.3958    0.0000 C   0  0  0  0  0  0  0  0  0  0  0  0
   15.4998  -18.9853    0.0000 C   0  0  0  0  0  0  0  0  0  0  0  0
   15.4996  -18.1560    0.0000 C   0  0  0  0  0  0  0  0  0  0  0  0
   14.7865  -17.7452    0.0000 C   0  0  0  0  0  0  0  0  0  0  0  0
    7.6533  -19.3813    0.0000 C   0  0  0  0  0  0  0  0  0  0  0  0
    6.9381  -18.9698    0.0000 C   0  0  0  0  0  0  0  0  0  0  0  0
    6.2242  -19.3833    0.0000 C   0  0  0  0  0  0  0  0  0  0  0  0
    5.5090  -18.9719    0.0000 N   0  0  0  0  0  0  0  0  0  0  0  0
    4.0800  -18.9739    0.0000 C   0  0  0  0  0  0  0  0  0  0  0  0
    4.0781  -18.1499    0.0000 C   0  0  0  0  0  0  0  0  0  0  0  0
    3.3639  -17.7385    0.0000 C   0  0  0  0  0  0  0  0  0  0  0  0
    2.6512  -18.1521    0.0000 C   0  0  0  0  0  0  0  0  0  0  0  0
    2.6558  -18.9814    0.0000 C   0  0  0  0  0  0  0  0  0  0  0  0
    3.3677  -19.3891    0.0000 C   0  0  0  0  0  0  0  0  0  0  0  0
    3.3625  -16.9134    0.0000 Cl  0  0  0  0  0  0  0  0  0  0  0  0
   14.7856  -16.9202    0.0000 Cl  0  0  0  0  0  0  0  0  0  0  0  0
  2  1  2  0
  3  2  2  0
  5  4  2  0
  6  5  2  0
  7  8  1  0
  7 12  1  0
  8  9  1  0
  9 10  1  0
 10 11  1  0
 11 12  1  0
 11 13  1  0
 13 14  1  0
 14 15  1  0
 15 16  1  0
 16  5  1  0
  5 17  1  0
 17 18  2  0
 18 19  1  0
 19 20  2  0
 20 21  1  0
 21 22  2  0
 22 17  1  0
  8 23  1  0
 23 24  1  0
 24 25  1  0
 25 26  1  0
 26  2  1  0
  2 27  1  0
 27 28  2  0
 28 29  1  0
 29 30  2  0
 30 31  1  0
 31 32  2  0
 32 27  1  0
 29 33  1  0
 22 34  1  0
M  END
> <chembl_id>
CHEMBL4075563

> <chembl_pref_name>
None

$$$$
CHEMBL1771792
     RDKit          2D

 24 26  0  0  0  0  0  0  0  0999 V2000
   -1.0348   -0.1916    0.0000 C   0  0  0  0  0  0  0  0  0  0  0  0
   -1.0359   -1.0190    0.0000 C   0  0  0  0  0  0  0  0  0  0  0  0
   -0.3211   -1.4319    0.0000 C   0  0  0  0  0  0  0  0  0  0  0  0
   -0.3229    0.2211    0.0000 C   0  0  0  0  0  0  0  0  0  0  0  0
    0.3925   -0.1880    0.0000 C   0  0  0  0  0  0  0  0  0  0  0  0
    0.3913   -1.0211    0.0000 C   0  0  0  0  0  0  0  0  0  0  0  0
    1.1082   -1.4363    0.0000 N   0  0  0  0  0  0  0  0  0  0  0  0
    1.8308   -1.0231    0.0000 C   0  0  0  0  0  0  0  0  0  0  0  0
    1.8320   -0.1901    0.0000 C   0  0  0  0  0  0  0  0  0  0  0  0
    1.1106    0.2298    0.0000 C   0  0  0  0  0  0  0  0  0  0  0  0
    2.5441   -1.4377    0.0000 C   0  0  0  0  0  0  0  0  0  0  0  0
   -1.7507   -1.4309    0.0000 O   0  0  0  0  0  0  0  0  0  0  0  0
   -2.4649   -1.0179    0.0000 C   0  0  0  0  0  0  0  0  0  0  0  0
   -3.1797   -1.4298    0.0000 C   0  0  0  0  0  0  0  0  0  0  0  0
    1.1106    1.0548    0.0000 N   0  0  0  0  0  0  0  0  0  0  0  0
    1.8251    1.4673    0.0000 N   0  0  0  0  0  0  0  0  0  0  0  0
    2.5395    1.0547    0.0000 C   0  0  0  0  0  0  0  0  0  0  0  0
    3.2540    1.4672    0.0000 C   0  0  0  0  0  0  0  0  0  0  0  0
    2.5395    0.2297    0.0000 O   0  0  0  0  0  0  0  0  0  0  0  0
    3.9650    1.0537    0.0000 C   0  0  0  0  0  0  0  0  0  0  0  0
    4.6790    1.4654    0.0000 C   0  0  0  0  0  0  0  0  0  0  0  0
    4.6794    2.2913    0.0000 C   0  0  0  0  0  0  0  0  0  0  0  0
    3.9600    2.7037    0.0000 C   0  0  0  0  0  0  0  0  0  0  0  0
    3.2489    2.2895    0.0000 C   0  0  0  0  0  0  0  0  0  0  0  0
  2 12  1  0
  2  3  1  0
 12 13  1  0
  3  6  2  0
 13 14  1  0
  1  2  2  0
 10 15  1  0
  5  4  2  0
 15 16  1  0
  4  1  1  0
 16 17  1  0
  5 10  1  0
 17 18  1  0
  6  7  1  0
 17 19  2  0
  7  8  2  0
 18 20  2  0
  8  9  1  0
 20 21  1  0
  9 10  2  0
 21 22  2  0
  5  6  1  0
 22 23  1  0
  8 11  1  0
 23 24  2  0
 24 18  1  0
M  END
> <chembl_id>
CHEMBL1771792

> <chembl_pref_name>
None

$$$$
CHEMBL1495335
     RDKit          2D

 26 28  0  0  0  0  0  0  0  0999 V2000
    1.0573   -2.8805    0.0000 S   0  0  0  0  0  0  0  0  0  0  0  0
    0.3898   -1.5706    0.0000 S   0  0  0  0  0  0  0  0  0  0  0  0
   -0.5076   -4.3325    0.0000 O   0  0  0  0  0  0  0  0  0  0  0  0
   -0.2776   -2.8805    0.0000 N   0  0  0  0  0  0  0  0  0  0  0  0
    4.7185   -5.4087    0.0000 N   0  0  0  0  0  0  0  0  0  0  0  0
   -0.0227   -3.6651    0.0000 C   0  0  0  0  0  0  0  0  0  0  0  0
    0.8023   -3.6651    0.0000 C   0  0  0  0  0  0  0  0  0  0  0  0
    0.3898   -2.3956    0.0000 C   0  0  0  0  0  0  0  0  0  0  0  0
   -1.0622   -2.6255    0.0000 C   0  0  0  0  0  0  0  0  0  0  0  0
   -1.2338   -1.8186    0.0000 C   0  0  0  0  0  0  0  0  0  0  0  0
    1.2872   -4.3325    0.0000 C   0  0  0  0  0  0  0  0  0  0  0  0
   -2.0184   -1.5636    0.0000 C   0  0  0  0  0  0  0  0  0  0  0  0
   -0.6207   -1.2665    0.0000 C   0  0  0  0  0  0  0  0  0  0  0  0
    2.1077   -4.2463    0.0000 C   0  0  0  0  0  0  0  0  0  0  0  0
   -2.1899   -0.7567    0.0000 C   0  0  0  0  0  0  0  0  0  0  0  0
   -0.7922   -0.4596    0.0000 C   0  0  0  0  0  0  0  0  0  0  0  0
    2.5926   -4.9137    0.0000 C   0  0  0  0  0  0  0  0  0  0  0  0
   -1.5768   -0.2046    0.0000 C   0  0  0  0  0  0  0  0  0  0  0  0
    5.2034   -6.0761    0.0000 C   0  0  0  0  0  0  0  0  0  0  0  0
    3.4131   -4.8275    0.0000 C   0  0  0  0  0  0  0  0  0  0  0  0
    3.8980   -5.4949    0.0000 C   0  0  0  0  0  0  0  0  0  0  0  0
    6.0239   -5.9899    0.0000 C   0  0  0  0  0  0  0  0  0  0  0  0
    4.8679   -6.8298    0.0000 C   0  0  0  0  0  0  0  0  0  0  0  0
    6.5088   -6.6573    0.0000 C   0  0  0  0  0  0  0  0  0  0  0  0
    5.3528   -7.4973    0.0000 C   0  0  0  0  0  0  0  0  0  0  0  0
    6.1733   -7.4110    0.0000 C   0  0  0  0  0  0  0  0  0  0  0  0
  1  7  1  0
  1  8  1  0
  2  8  2  0
  3  6  2  0
  4  6  1  0
  4  8  1  0
  4  9  1  0
  5 19  1  0
  5 21  1  0
  6  7  1  0
  7 11  2  0
  9 10  1  0
 10 12  2  0
 10 13  1  0
 11 14  1  0
 12 15  1  0
 13 16  2  0
 14 17  2  0
 15 18  2  0
 16 18  1  0
 17 20  1  0
 19 22  2  0
 19 23  1  0
 20 21  2  0
 22 24  1  0
 23 25  2  0
 24 26  2  0
 25 26  1  0
M  END
> <chembl_id>
CHEMBL1495335

> <chembl_pref_name>
None

$$$$
CHEMBL4059548
     RDKit          2D

 39 42  0  0  0  0  0  0  0  0999 V2000
    2.8065  -14.3751    0.0000 O   0  0  0  0  0  0  0  0  0  0  0  0
    3.2192  -15.0850    0.0000 S   0  0  0  0  0  0  0  0  0  0  0  0
    3.6277  -14.3727    0.0000 O   0  0  0  0  0  0  0  0  0  0  0  0
   12.1093  -17.4210    0.0000 O   0  0  0  0  0  0  0  0  0  0  0  0
   11.7048  -16.7153    0.0000 S   0  0  0  0  0  0  0  0  0  0  0  0
   11.2959  -17.4184    0.0000 O   0  0  0  0  0  0  0  0  0  0  0  0
    6.7604  -15.4854    0.0000 N   0  0  0  0  0  0  0  0  0  0  0  0
    6.7604  -16.3026    0.0000 C   0  0  0  0  0  0  0  0  0  0  0  0
    7.4657  -16.7070    0.0000 C   0  0  0  0  0  0  0  0  0  0  0  0
    8.1710  -16.3026    0.0000 N   0  0  0  0  0  0  0  0  0  0  0  0
    8.1710  -15.4854    0.0000 C   0  0  0  0  0  0  0  0  0  0  0  0
    7.4657  -15.0726    0.0000 C   0  0  0  0  0  0  0  0  0  0  0  0
    8.8781  -16.7122    0.0000 C   0  0  0  0  0  0  0  0  0  0  0  0
    9.5864  -16.3046    0.0000 C   0  0  0  0  0  0  0  0  0  0  0  0
   10.2935  -16.7142    0.0000 C   0  0  0  0  0  0  0  0  0  0  0  0
   11.0018  -16.3067    0.0000 N   0  0  0  0  0  0  0  0  0  0  0  0
   12.4172  -16.3087    0.0000 C   0  0  0  0  0  0  0  0  0  0  0  0
    6.0515  -15.0788    0.0000 C   0  0  0  0  0  0  0  0  0  0  0  0
    5.3450  -15.4895    0.0000 C   0  0  0  0  0  0  0  0  0  0  0  0
    4.6361  -15.0830    0.0000 C   0  0  0  0  0  0  0  0  0  0  0  0
    3.9296  -15.4937    0.0000 N   0  0  0  0  0  0  0  0  0  0  0  0
    2.5142  -15.4978    0.0000 C   0  0  0  0  0  0  0  0  0  0  0  0
    1.8061  -15.0878    0.0000 C   0  0  0  0  0  0  0  0  0  0  0  0
    1.1001  -15.4978    0.0000 C   0  0  0  0  0  0  0  0  0  0  0  0
    1.1020  -16.3158    0.0000 C   0  0  0  0  0  0  0  0  0  0  0  0
    1.8159  -16.7222    0.0000 C   0  0  0  0  0  0  0  0  0  0  0  0
    2.5190  -16.3099    0.0000 C   0  0  0  0  0  0  0  0  0  0  0  0
   13.1209  -16.7224    0.0000 C   0  0  0  0  0  0  0  0  0  0  0  0
   13.8287  -16.3155    0.0000 C   0  0  0  0  0  0  0  0  0  0  0  0
   13.8303  -15.4974    0.0000 C   0  0  0  0  0  0  0  0  0  0  0  0
   13.1182  -15.0880    0.0000 C   0  0  0  0  0  0  0  0  0  0  0  0
   12.4133  -15.4972    0.0000 C   0  0  0  0  0  0  0  0  0  0  0  0
    0.3961  -16.7275    0.0000 Cl  0  0  0  0  0  0  0  0  0  0  0  0
   14.5330  -15.0899    0.0000 C   0  0  0  0  0  0  0  0  0  0  0  0
   15.2409  -15.5003    0.0000 C   0  0  0  0  0  0  0  0  0  0  0  0
   15.9482  -15.0924    0.0000 C   0  0  0  0  0  0  0  0  0  0  0  0
   15.9487  -14.2744    0.0000 C   0  0  0  0  0  0  0  0  0  0  0  0
   15.2361  -13.8659    0.0000 C   0  0  0  0  0  0  0  0  0  0  0  0
   14.5317  -14.2760    0.0000 C   0  0  0  0  0  0  0  0  0  0  0  0
  2  1  2  0
  3  2  2  0
  5  4  2  0
  6  5  2  0
  7  8  1  0
  7 12  1  0
  8  9  1  0
  9 10  1  0
 10 11  1  0
 11 12  1  0
 10 13  1  0
 13 14  1  0
 14 15  1  0
 15 16  1  0
 16  5  1  0
  5 17  1  0
  7 18  1  0
 18 19  1  0
 19 20  1  0
 20 21  1  0
 21  2  1  0
  2 22  1  0
 22 23  2  0
 23 24  1  0
 24 25  2  0
 25 26  1  0
 26 27  2  0
 27 22  1  0
 17 28  2  0
 28 29  1  0
 29 30  2  0
 30 31  1  0
 31 32  2  0
 32 17  1  0
 25 33  1  0
 34 35  2  0
 35 36  1  0
 36 37  2  0
 37 38  1  0
 38 39  2  0
 39 34  1  0
 30 34  1  0
M  END
> <chembl_id>
CHEMBL4059548

> <chembl_pref_name>
None

$$$$
CHEMBL2059076
     RDKit          2D

 25 26  0  0  0  0  0  0  0  0999 V2000
   23.2356  -21.8013    0.0000 C   0  0  0  0  0  0  0  0  0  0  0  0
   18.2467  -21.4146    0.0000 C   0  0  0  0  0  0  0  0  0  0  0  0
   17.5358  -21.8262    0.0000 C   0  0  0  0  0  0  0  0  0  0  0  0
   16.8249  -21.4146    0.0000 C   0  0  0  0  0  0  0  0  0  0  0  0
   23.2438  -22.6244    0.0000 O   0  0  0  0  0  0  0  0  0  0  0  0
   23.9547  -21.3897    0.0000 C   0  0  0  0  0  0  0  0  0  0  0  0
   18.2467  -20.5915    0.0000 O   0  0  0  0  0  0  0  0  0  0  0  0
   22.5246  -21.3980    0.0000 N   0  0  0  0  0  0  0  0  0  0  0  0
   18.9659  -21.8220    0.0000 N   0  0  0  0  0  0  0  0  0  0  0  0
   16.1140  -21.8345    0.0000 C   0  0  0  0  0  0  0  0  0  0  0  0
   24.6657  -21.8013    0.0000 C   0  0  0  0  0  0  0  0  0  0  0  0
   23.9465  -20.5707    0.0000 C   0  0  0  0  0  0  0  0  0  0  0  0
   21.8137  -21.8095    0.0000 C   0  0  0  0  0  0  0  0  0  0  0  0
   19.6768  -21.4022    0.0000 C   0  0  0  0  0  0  0  0  0  0  0  0
   15.3989  -21.4229    0.0000 C   0  0  0  0  0  0  0  0  0  0  0  0
   16.1140  -22.6618    0.0000 C   0  0  0  0  0  0  0  0  0  0  0  0
   21.1028  -21.4022    0.0000 C   0  0  0  0  0  0  0  0  0  0  0  0
   20.3919  -21.8137    0.0000 C   0  0  0  0  0  0  0  0  0  0  0  0
   24.6574  -20.1549    0.0000 C   0  0  0  0  0  0  0  0  0  0  0  0
   25.3766  -21.3897    0.0000 C   0  0  0  0  0  0  0  0  0  0  0  0
   14.6839  -21.8345    0.0000 C   0  0  0  0  0  0  0  0  0  0  0  0
   15.3989  -23.0734    0.0000 C   0  0  0  0  0  0  0  0  0  0  0  0
   14.6839  -22.6618    0.0000 C   0  0  0  0  0  0  0  0  0  0  0  0
   25.3766  -20.5665    0.0000 C   0  0  0  0  0  0  0  0  0  0  0  0
   26.0887  -20.1535    0.0000 O   0  0  0  0  0  0  0  0  0  0  0  0
  2  9  1  0
  3  2  1  0
  4  3  2  0
  5  1  2  0
  6  1  1  0
  7  2  2  0
  8  1  1  0
  9 14  1  0
 10  4  1  0
 11  6  2  0
 12  6  1  0
 13  8  1  0
 14 18  1  0
 15 10  2  0
 16 10  1  0
 17 13  1  0
 18 17  1  0
 19 12  2  0
 20 11  1  0
 21 15  1  0
 22 16  2  0
 23 22  1  0
 24 19  1  0
 20 24  2  0
 21 23  2  0
 24 25  1  0
M  END
> <chembl_id>
CHEMBL2059076

> <chembl_pref_name>
None

$$$$
CHEMBL366398
     RDKit          2D

 38 44  0  0  0  0  0  0  0  0999 V2000
   -3.8625    0.7458    0.0000 C   0  0  0  0  0  0  0  0  0  0  0  0
    3.8542   -0.7667    0.0000 C   0  0  0  0  0  0  0  0  0  0  0  0
   -3.9333    1.4833    0.0000 N   0  0  0  0  0  0  0  0  0  0  0  0
    3.9292   -1.5042    0.0000 N   0  0  0  0  0  0  0  0  0  0  0  0
    4.5292   -0.4667    0.0000 N   0  0  0  0  0  0  0  0  0  0  0  0
   -4.5375    0.4458    0.0000 N   0  0  0  0  0  0  0  0  0  0  0  0
   -4.6625    1.6500    0.0000 C   0  0  0  0  0  0  0  0  0  0  0  0
    4.6542   -1.6625    0.0000 C   0  0  0  0  0  0  0  0  0  0  0  0
    5.0250   -1.0167    0.0000 C   0  0  0  0  0  0  0  0  0  0  0  0
   -5.0333    1.0083    0.0000 C   0  0  0  0  0  0  0  0  0  0  0  0
    1.9250    0.3583    0.0000 N   0  0  0  0  0  0  0  0  0  0  0  0
   -1.9333   -0.3792    0.0000 N   0  0  0  0  0  0  0  0  0  0  0  0
    3.2042   -0.3917    0.0000 C   0  0  0  0  0  0  0  0  0  0  0  0
   -3.2208    0.3708    0.0000 C   0  0  0  0  0  0  0  0  0  0  0  0
    1.2792    0.7250    0.0000 C   0  0  0  0  0  0  0  0  0  0  0  0
   -1.2875   -0.7542    0.0000 C   0  0  0  0  0  0  0  0  0  0  0  0
    3.2042    0.3583    0.0000 C   0  0  0  0  0  0  0  0  0  0  0  0
    2.5667   -0.7625    0.0000 C   0  0  0  0  0  0  0  0  0  0  0  0
   -2.5750    0.7375    0.0000 C   0  0  0  0  0  0  0  0  0  0  0  0
   -3.2208   -0.3792    0.0000 C   0  0  0  0  0  0  0  0  0  0  0  0
   -1.9333    0.3625    0.0000 C   0  0  0  0  0  0  0  0  0  0  0  0
   -2.5833   -0.7542    0.0000 C   0  0  0  0  0  0  0  0  0  0  0  0
    2.5667    0.7250    0.0000 C   0  0  0  0  0  0  0  0  0  0  0  0
    1.9250   -0.3917    0.0000 C   0  0  0  0  0  0  0  0  0  0  0  0
   -0.6458   -0.3792    0.0000 C   0  0  0  0  0  0  0  0  0  0  0  0
    0.6375    0.3583    0.0000 C   0  0  0  0  0  0  0  0  0  0  0  0
   -0.0083   -0.7542    0.0000 C   0  0  0  0  0  0  0  0  0  0  0  0
   -0.0083    0.7250    0.0000 C   0  0  0  0  0  0  0  0  0  0  0  0
    0.6375   -0.3875    0.0000 C   0  0  0  0  0  0  0  0  0  0  0  0
   -0.6458    0.3583    0.0000 C   0  0  0  0  0  0  0  0  0  0  0  0
   -4.9583    2.3375    0.0000 C   0  0  0  0  0  0  0  0  0  0  0  0
    5.0167   -2.3042    0.0000 C   0  0  0  0  0  0  0  0  0  0  0  0
    5.7667   -1.0167    0.0000 C   0  0  0  0  0  0  0  0  0  0  0  0
   -5.8458    1.1458    0.0000 C   0  0  0  0  0  0  0  0  0  0  0  0
   -5.6875    2.4208    0.0000 C   0  0  0  0  0  0  0  0  0  0  0  0
   -6.1375    1.8333    0.0000 C   0  0  0  0  0  0  0  0  0  0  0  0
    6.1375   -1.6625    0.0000 C   0  0  0  0  0  0  0  0  0  0  0  0
    5.7542   -2.3042    0.0000 C   0  0  0  0  0  0  0  0  0  0  0  0
  2 13  1  0
  3  1  2  0
  4  2  2  0
  5  2  1  0
  6  1  1  0
  7  3  1  0
  8  4  1  0
  9  5  1  0
 10  6  1  0
 11 15  1  0
 12 22  1  0
 13 18  1  0
 14  1  1  0
 15 26  1  0
 16 12  1  0
 17 23  1  0
 18 24  1  0
 19 14  1  0
 20 14  1  0
 21 19  1  0
 22 20  1  0
 23 11  1  0
 24 11  1  0
 25 16  1  0
 26 28  1  0
 27 25  2  0
 28 30  2  0
 29 27  1  0
 30 25  1  0
 31  7  1  0
 32  8  1  0
 33  9  1  0
 34 10  1  0
 35 31  1  0
 36 34  1  0
 37 33  1  0
 38 32  1  0
  7 10  1  0
 12 21  1  0
 35 36  1  0
 26 29  2  0
 13 17  1  0
  8  9  1  0
 38 37  1  0
M  END
> <chembl_id>
CHEMBL366398

> <chembl_pref_name>
None

$$$$
CHEMBL521602
     RDKit          2D

 25 28  0  0  0  0  0  0  0  0999 V2000
   16.9969  -20.7036    0.0000 C   0  0  0  0  0  0  0  0  0  0  0  0
   16.9957  -21.5303    0.0000 C   0  0  0  0  0  0  0  0  0  0  0  0
   17.7100  -21.9427    0.0000 C   0  0  0  0  0  0  0  0  0  0  0  0
   17.7082  -20.2911    0.0000 C   0  0  0  0  0  0  0  0  0  0  0  0
   18.4230  -20.7000    0.0000 C   0  0  0  0  0  0  0  0  0  0  0  0
   18.4218  -21.5323    0.0000 C   0  0  0  0  0  0  0  0  0  0  0  0
   19.1381  -21.9472    0.0000 N   0  0  0  0  0  0  0  0  0  0  0  0
   19.1405  -20.2825    0.0000 C   0  0  0  0  0  0  0  0  0  0  0  0
   19.8614  -20.7020    0.0000 C   0  0  0  0  0  0  0  0  0  0  0  0
   19.8601  -21.5303    0.0000 C   0  0  0  0  0  0  0  0  0  0  0  0
   20.5756  -21.9436    0.0000 C   0  0  0  0  0  0  0  0  0  0  0  0
   21.2928  -21.5300    0.0000 C   0  0  0  0  0  0  0  0  0  0  0  0
   21.2901  -20.6986    0.0000 C   0  0  0  0  0  0  0  0  0  0  0  0
   20.5740  -20.2889    0.0000 C   0  0  0  0  0  0  0  0  0  0  0  0
   19.1405  -19.4582    0.0000 O   0  0  0  0  0  0  0  0  0  0  0  0
   20.5752  -22.7679    0.0000 C   0  0  0  0  0  0  0  0  0  0  0  0
   19.8612  -23.1798    0.0000 O   0  0  0  0  0  0  0  0  0  0  0  0
   21.2889  -23.1804    0.0000 N   0  0  0  0  0  0  0  0  0  0  0  0
   21.2886  -24.0047    0.0000 C   0  0  0  0  0  0  0  0  0  0  0  0
   20.5746  -24.4166    0.0000 C   0  0  0  0  0  0  0  0  0  0  0  0
   19.8644  -24.0030    0.0000 C   0  0  0  0  0  0  0  0  0  0  0  0
   19.1509  -24.4142    0.0000 C   0  0  0  0  0  0  0  0  0  0  0  0
   19.1501  -25.2394    0.0000 C   0  0  0  0  0  0  0  0  0  0  0  0
   19.8688  -25.6516    0.0000 C   0  0  0  0  0  0  0  0  0  0  0  0
   20.5794  -25.2381    0.0000 N   0  0  0  0  0  0  0  0  0  0  0  0
 11 12  2  0
  2  3  1  0
 12 13  1  0
  3  6  2  0
 13 14  2  0
 14  9  1  0
  1  2  2  0
  8 15  2  0
  5  8  1  0
 11 16  1  0
  6  7  1  0
 16 17  2  0
  7 10  1  0
 16 18  1  0
  9  8  1  0
 18 19  1  0
  5  4  2  0
 19 20  1  0
  4  1  1  0
 20 21  2  0
  9 10  2  0
 21 22  1  0
  5  6  1  0
 22 23  2  0
 10 11  1  0
 23 24  1  0
 24 25  2  0
 25 20  1  0
M  END
> <chembl_id>
CHEMBL521602

> <chembl_pref_name>
None

$$$$
CHEMBL2059285
     RDKit          2D

 35 38  0  0  0  0  0  0  0  0999 V2000
   -4.1980  -21.1245    0.0000 C   0  0  0  0  0  0  0  0  0  0  0  0
   -4.6089  -21.8397    0.0000 C   0  0  0  0  0  0  0  0  0  0  0  0
   -3.7834  -21.8400    0.0000 C   0  0  0  0  0  0  0  0  0  0  0  0
   -4.9109  -19.8926    0.0000 C   0  0  0  0  0  0  0  0  0  0  0  0
   -4.9109  -20.7180    0.0000 C   0  0  0  0  0  0  0  0  0  0  0  0
   -4.1980  -19.4737    0.0000 C   0  0  0  0  0  0  0  0  0  0  0  0
   -3.4851  -19.8926    0.0000 C   0  0  0  0  0  0  0  0  0  0  0  0
   -3.4840  -20.7180    0.0000 C   0  0  0  0  0  0  0  0  0  0  0  0
   -2.7720  -21.1255    0.0000 C   0  0  0  0  0  0  0  0  0  0  0  0
   -2.0566  -20.7162    0.0000 C   0  0  0  0  0  0  0  0  0  0  0  0
   -2.7741  -19.4747    0.0000 C   0  0  0  0  0  0  0  0  0  0  0  0
   -2.0597  -19.8892    0.0000 C   0  0  0  0  0  0  0  0  0  0  0  0
   -2.0609  -18.2430    0.0000 C   0  0  0  0  0  0  0  0  0  0  0  0
   -2.7778  -18.6525    0.0000 C   0  0  0  0  0  0  0  0  0  0  0  0
   -1.3463  -18.6535    0.0000 C   0  0  0  0  0  0  0  0  0  0  0  0
   -1.3450  -19.4782    0.0000 C   0  0  0  0  0  0  0  0  0  0  0  0
   -0.5598  -19.7347    0.0000 C   0  0  0  0  0  0  0  0  0  0  0  0
   -0.0785  -19.0657    0.0000 C   0  0  0  0  0  0  0  0  0  0  0  0
   -0.5622  -18.3985    0.0000 C   0  0  0  0  0  0  0  0  0  0  0  0
   -3.4883  -21.5393    0.0000 H   0  0  0  0  0  0  0  0  0  0  0  0
   -3.4924  -19.0673    0.0000 C   0  0  0  0  0  0  0  0  0  0  0  0
   -2.0656  -19.0631    0.0000 H   0  0  0  0  0  0  0  0  0  0  0  0
   -1.3521  -20.3032    0.0000 C   0  0  0  0  0  0  0  0  0  0  0  0
   -1.3521  -17.8270    0.0000 C   0  0  0  0  0  0  0  0  0  0  0  0
   -0.5818  -17.5726    0.0000 C   0  0  0  0  0  0  0  0  0  0  0  0
    0.1189  -17.1442    0.0000 C   0  0  0  0  0  0  0  0  0  0  0  0
   -1.3072  -17.1798    0.0000 C   0  0  0  0  0  0  0  0  0  0  0  0
    0.8444  -17.5370    0.0000 C   0  0  0  0  0  0  0  0  0  0  0  0
    1.5492  -17.1045    0.0000 C   0  0  0  0  0  0  0  0  0  0  0  0
    2.2746  -17.5013    0.0000 C   0  0  0  0  0  0  0  0  0  0  0  0
    2.9796  -17.0688    0.0000 C   0  0  0  0  0  0  0  0  0  0  0  0
    2.2952  -18.3264    0.0000 C   0  0  0  0  0  0  0  0  0  0  0  0
    0.2150  -18.1234    0.0000 H   0  0  0  0  0  0  0  0  0  0  0  0
    1.5286  -16.2794    0.0000 C   0  0  0  0  0  0  0  0  0  0  0  0
   -5.6258  -21.1297    0.0000 O   0  0  0  0  0  0  0  0  0  0  0  0
  2  1  1  0
  1  3  1  0
 16 17  1  0
 17 18  1  0
 18 19  1  0
 19 15  1  0
  7 11  1  0
  8 20  1  6
  8  9  1  0
  7 21  1  1
  9 10  1  0
 12 22  1  1
 10 12  1  0
 16 23  1  6
 11 12  1  0
 15 24  1  1
  4  6  1  0
 19 25  1  0
  5  1  1  0
 25 26  1  0
  1  8  1  0
 25 27  1  6
  7  6  1  0
 26 28  1  0
 11 14  2  0
 28 29  1  0
 12 16  1  0
 29 30  1  0
 15 13  1  0
 30 31  2  0
 13 14  1  0
 30 32  1  0
 15 16  1  0
 19 33  1  6
  7  8  1  0
 29 34  1  0
  4  5  1  0
  5 35  2  0
M  END
> <chembl_id>
CHEMBL2059285

> <chembl_pref_name>
None

$$$$
CHEMBL4442492
     RDKit          2D

 18 21  0  0  0  0  0  0  0  0999 V2000
   21.2083   -8.7490    0.0000 N   0  0  0  0  0  0  0  0  0  0  0  0
   20.5453   -8.2668    0.0000 N   0  0  0  0  0  0  0  0  0  0  0  0
   19.8866   -8.7490    0.0000 C   0  0  0  0  0  0  0  0  0  0  0  0
   20.9539   -9.5257    0.0000 C   0  0  0  0  0  0  0  0  0  0  0  0
   20.1367   -9.5257    0.0000 N   0  0  0  0  0  0  0  0  0  0  0  0
   19.8841  -10.3029    0.0000 N   0  0  0  0  0  0  0  0  0  0  0  0
   20.5453  -10.7833    0.0000 C   0  0  0  0  0  0  0  0  0  0  0  0
   21.2064  -10.3029    0.0000 S   0  0  0  0  0  0  0  0  0  0  0  0
   20.5453  -11.6005    0.0000 C   0  0  0  0  0  0  0  0  0  0  0  0
   19.8379  -12.0058    0.0000 C   0  0  0  0  0  0  0  0  0  0  0  0
   19.8376  -12.8222    0.0000 C   0  0  0  0  0  0  0  0  0  0  0  0
   20.5459  -13.2316    0.0000 C   0  0  0  0  0  0  0  0  0  0  0  0
   21.2527  -12.0035    0.0000 C   0  0  0  0  0  0  0  0  0  0  0  0
   21.2552  -12.8147    0.0000 C   0  0  0  0  0  0  0  0  0  0  0  0
   21.9551  -13.2160    0.0000 C   0  0  0  0  0  0  0  0  0  0  0  0
   22.6570  -12.8105    0.0000 C   0  0  0  0  0  0  0  0  0  0  0  0
   22.6546  -11.9993    0.0000 C   0  0  0  0  0  0  0  0  0  0  0  0
   21.9502  -11.5935    0.0000 O   0  0  0  0  0  0  0  0  0  0  0  0
  4  1  2  0
  1  2  1  0
  2  3  2  0
  3  5  1  0
  4  5  1  0
  5  6  1  0
  6  7  2  0
  7  8  1  0
  8  4  1  0
  7  9  1  0
  9 10  2  0
 10 11  1  0
 11 12  2  0
 12 14  1  0
 13  9  1  0
 13 14  2  0
 13 18  1  0
 14 15  1  0
 15 16  1  0
 16 17  1  0
 17 18  1  0
M  END
> <chembl_id>
CHEMBL4442492

> <chembl_pref_name>
None

$$$$
CHEMBL4070921
     RDKit          2D

 42 46  0  0  0  0  0  0  0  0999 V2000
   13.3144  -16.7442    0.0000 O   0  0  0  0  0  0  0  0  0  0  0  0
   12.9100  -16.0384    0.0000 S   0  0  0  0  0  0  0  0  0  0  0  0
   12.5010  -16.7416    0.0000 O   0  0  0  0  0  0  0  0  0  0  0  0
    4.0117  -13.6983    0.0000 O   0  0  0  0  0  0  0  0  0  0  0  0
    4.4244  -14.4082    0.0000 S   0  0  0  0  0  0  0  0  0  0  0  0
    4.8328  -13.6958    0.0000 O   0  0  0  0  0  0  0  0  0  0  0  0
    7.9656  -14.8085    0.0000 N   0  0  0  0  0  0  0  0  0  0  0  0
    7.9656  -15.6257    0.0000 C   0  0  0  0  0  0  0  0  0  0  0  0
    8.6708  -16.0302    0.0000 C   0  0  0  0  0  0  0  0  0  0  0  0
    9.3761  -15.6257    0.0000 N   0  0  0  0  0  0  0  0  0  0  0  0
    9.3761  -14.8085    0.0000 C   0  0  0  0  0  0  0  0  0  0  0  0
    8.6708  -14.3958    0.0000 C   0  0  0  0  0  0  0  0  0  0  0  0
   10.0832  -16.0353    0.0000 C   0  0  0  0  0  0  0  0  0  0  0  0
   10.0820  -16.8525    0.0000 O   0  0  0  0  0  0  0  0  0  0  0  0
   10.7915  -15.6277    0.0000 C   0  0  0  0  0  0  0  0  0  0  0  0
   11.4986  -16.0374    0.0000 C   0  0  0  0  0  0  0  0  0  0  0  0
   12.2069  -15.6298    0.0000 N   0  0  0  0  0  0  0  0  0  0  0  0
    7.2566  -14.4020    0.0000 C   0  0  0  0  0  0  0  0  0  0  0  0
    7.2543  -13.5848    0.0000 O   0  0  0  0  0  0  0  0  0  0  0  0
    6.5501  -14.8126    0.0000 C   0  0  0  0  0  0  0  0  0  0  0  0
    5.8412  -14.4061    0.0000 C   0  0  0  0  0  0  0  0  0  0  0  0
    5.1347  -14.8168    0.0000 N   0  0  0  0  0  0  0  0  0  0  0  0
    3.7193  -14.8209    0.0000 C   0  0  0  0  0  0  0  0  0  0  0  0
   13.6224  -15.6319    0.0000 C   0  0  0  0  0  0  0  0  0  0  0  0
    3.0101  -14.4132    0.0000 C   0  0  0  0  0  0  0  0  0  0  0  0
    2.3055  -14.8253    0.0000 C   0  0  0  0  0  0  0  0  0  0  0  0
    3.7267  -15.6328    0.0000 C   0  0  0  0  0  0  0  0  0  0  0  0
   14.3271  -16.0496    0.0000 C   0  0  0  0  0  0  0  0  0  0  0  0
   14.3303  -14.4091    0.0000 C   0  0  0  0  0  0  0  0  0  0  0  0
   13.6213  -14.8173    0.0000 C   0  0  0  0  0  0  0  0  0  0  0  0
    3.0250  -16.0472    0.0000 C   0  0  0  0  0  0  0  0  0  0  0  0
    2.3112  -15.6470    0.0000 C   0  0  0  0  0  0  0  0  0  0  0  0
    1.6097  -16.0650    0.0000 C   0  0  0  0  0  0  0  0  0  0  0  0
    1.6209  -16.8831    0.0000 C   0  0  0  0  0  0  0  0  0  0  0  0
    2.3395  -17.2814    0.0000 C   0  0  0  0  0  0  0  0  0  0  0  0
    3.0380  -16.8611    0.0000 C   0  0  0  0  0  0  0  0  0  0  0  0
   15.0436  -14.8226    0.0000 C   0  0  0  0  0  0  0  0  0  0  0  0
   15.0371  -15.6404    0.0000 C   0  0  0  0  0  0  0  0  0  0  0  0
   15.7409  -16.0531    0.0000 C   0  0  0  0  0  0  0  0  0  0  0  0
   16.4518  -15.6492    0.0000 C   0  0  0  0  0  0  0  0  0  0  0  0
   16.4543  -14.8283    0.0000 C   0  0  0  0  0  0  0  0  0  0  0  0
   15.7499  -14.4192    0.0000 C   0  0  0  0  0  0  0  0  0  0  0  0
  2  1  2  0
  3  2  2  0
  5  4  2  0
  6  5  2  0
  7  8  1  0
  7 12  1  0
  8  9  1  0
  9 10  1  0
 10 11  1  0
 11 12  1  0
 10 13  1  0
 13 14  2  0
 13 15  1  0
 15 16  1  0
 16 17  1  0
  7 18  1  0
 18 19  2  0
 18 20  1  0
 20 21  1  0
 21 22  1  0
 22  5  1  0
 17  2  1  0
  5 23  1  0
  2 24  1  0
 23 25  2  0
 25 26  1  0
 26 32  2  0
 31 27  2  0
 27 23  1  0
 24 28  2  0
 28 38  1  0
 37 29  1  0
 29 30  2  0
 30 24  1  0
 31 32  1  0
 32 33  1  0
 33 34  2  0
 34 35  1  0
 35 36  2  0
 36 31  1  0
 37 38  1  0
 38 39  2  0
 39 40  1  0
 40 41  2  0
 41 42  1  0
 42 37  2  0
M  END
> <chembl_id>
CHEMBL4070921

> <chembl_pref_name>
None

$$$$
CHEMBL4077360
     RDKit          2D

 36 38  0  0  0  0  0  0  0  0999 V2000
    4.1850  -20.8631    0.0000 O   0  0  0  0  0  0  0  0  0  0  0  0
    4.5977  -21.5730    0.0000 S   0  0  0  0  0  0  0  0  0  0  0  0
    5.0061  -20.8607    0.0000 O   0  0  0  0  0  0  0  0  0  0  0  0
   14.9034  -21.4698    0.0000 O   0  0  0  0  0  0  0  0  0  0  0  0
   14.4990  -20.7641    0.0000 S   0  0  0  0  0  0  0  0  0  0  0  0
   14.0900  -21.4672    0.0000 O   0  0  0  0  0  0  0  0  0  0  0  0
    8.8447  -20.7517    0.0000 C   0  0  0  0  0  0  0  0  0  0  0  0
    8.8447  -21.5689    0.0000 N   0  0  0  0  0  0  0  0  0  0  0  0
    9.5499  -21.9734    0.0000 C   0  0  0  0  0  0  0  0  0  0  0  0
   10.2552  -21.5689    0.0000 C   0  0  0  0  0  0  0  0  0  0  0  0
   10.2552  -20.7517    0.0000 N   0  0  0  0  0  0  0  0  0  0  0  0
    9.5499  -20.3390    0.0000 C   0  0  0  0  0  0  0  0  0  0  0  0
   10.9641  -20.3452    0.0000 C   0  0  0  0  0  0  0  0  0  0  0  0
   11.6706  -20.7559    0.0000 C   0  0  0  0  0  0  0  0  0  0  0  0
   12.3795  -20.3493    0.0000 C   0  0  0  0  0  0  0  0  0  0  0  0
   13.0860  -20.7600    0.0000 C   0  0  0  0  0  0  0  0  0  0  0  0
   13.7949  -20.3535    0.0000 N   0  0  0  0  0  0  0  0  0  0  0  0
   15.2103  -20.3576    0.0000 C   0  0  0  0  0  0  0  0  0  0  0  0
   15.9138  -20.7714    0.0000 C   0  0  0  0  0  0  0  0  0  0  0  0
   16.6222  -20.3656    0.0000 C   0  0  0  0  0  0  0  0  0  0  0  0
   16.6250  -19.5475    0.0000 C   0  0  0  0  0  0  0  0  0  0  0  0
   15.9136  -19.1370    0.0000 C   0  0  0  0  0  0  0  0  0  0  0  0
   15.2081  -19.5452    0.0000 C   0  0  0  0  0  0  0  0  0  0  0  0
   17.3334  -19.1401    0.0000 Cl  0  0  0  0  0  0  0  0  0  0  0  0
    8.1375  -21.9785    0.0000 C   0  0  0  0  0  0  0  0  0  0  0  0
    7.4292  -21.5710    0.0000 C   0  0  0  0  0  0  0  0  0  0  0  0
    6.7221  -21.9806    0.0000 C   0  0  0  0  0  0  0  0  0  0  0  0
    6.0138  -21.5730    0.0000 C   0  0  0  0  0  0  0  0  0  0  0  0
    5.3067  -21.9826    0.0000 N   0  0  0  0  0  0  0  0  0  0  0  0
    3.8913  -21.9847    0.0000 C   0  0  0  0  0  0  0  0  0  0  0  0
    3.1857  -21.5763    0.0000 C   0  0  0  0  0  0  0  0  0  0  0  0
    2.4791  -21.9853    0.0000 C   0  0  0  0  0  0  0  0  0  0  0  0
    2.4799  -22.8033    0.0000 C   0  0  0  0  0  0  0  0  0  0  0  0
    3.1931  -23.2107    0.0000 C   0  0  0  0  0  0  0  0  0  0  0  0
    3.8968  -22.7994    0.0000 C   0  0  0  0  0  0  0  0  0  0  0  0
    1.7733  -23.2139    0.0000 Cl  0  0  0  0  0  0  0  0  0  0  0  0
  2  1  2  0
  3  2  2  0
  5  4  2  0
  6  5  2  0
  7  8  1  0
  7 12  1  0
  8  9  1  0
  9 10  1  0
 10 11  1  0
 11 12  1  0
 11 13  1  0
 13 14  1  0
 14 15  1  0
 15 16  1  0
 16 17  1  0
 17  5  1  0
  5 18  1  0
 18 19  2  0
 19 20  1  0
 20 21  2  0
 21 22  1  0
 22 23  2  0
 23 18  1  0
 21 24  1  0
  8 25  1  0
 25 26  1  0
 26 27  1  0
 27 28  1  0
 28 29  1  0
 29  2  1  0
  2 30  1  0
 30 31  2  0
 31 32  1  0
 32 33  2  0
 33 34  1  0
 34 35  2  0
 35 30  1  0
 33 36  1  0
M  END
> <chembl_id>
CHEMBL4077360

> <chembl_pref_name>
None

$$$$
CHEMBL4574591
     RDKit          2D

 21 24  0  0  0  0  0  0  0  0999 V2000
   14.2415  -16.8837    0.0000 N   0  0  0  0  0  0  0  0  0  0  0  0
   13.5785  -16.4016    0.0000 N   0  0  0  0  0  0  0  0  0  0  0  0
   12.9198  -16.8837    0.0000 C   0  0  0  0  0  0  0  0  0  0  0  0
   13.9871  -17.6604    0.0000 C   0  0  0  0  0  0  0  0  0  0  0  0
   13.1700  -17.6604    0.0000 N   0  0  0  0  0  0  0  0  0  0  0  0
   12.9174  -18.4376    0.0000 N   0  0  0  0  0  0  0  0  0  0  0  0
   13.5785  -18.9180    0.0000 C   0  0  0  0  0  0  0  0  0  0  0  0
   14.2396  -18.4376    0.0000 S   0  0  0  0  0  0  0  0  0  0  0  0
   13.5786  -19.7352    0.0000 C   0  0  0  0  0  0  0  0  0  0  0  0
   12.8711  -20.1405    0.0000 C   0  0  0  0  0  0  0  0  0  0  0  0
   12.8708  -20.9570    0.0000 N   0  0  0  0  0  0  0  0  0  0  0  0
   13.5791  -21.3664    0.0000 C   0  0  0  0  0  0  0  0  0  0  0  0
   14.2891  -20.9533    0.0000 N   0  0  0  0  0  0  0  0  0  0  0  0
   14.2860  -20.1383    0.0000 C   0  0  0  0  0  0  0  0  0  0  0  0
   14.9917  -19.7263    0.0000 O   0  0  0  0  0  0  0  0  0  0  0  0
   15.7014  -20.1314    0.0000 C   0  0  0  0  0  0  0  0  0  0  0  0
   15.7011  -20.9468    0.0000 C   0  0  0  0  0  0  0  0  0  0  0  0
   16.4100  -21.3519    0.0000 C   0  0  0  0  0  0  0  0  0  0  0  0
   17.1167  -20.9398    0.0000 C   0  0  0  0  0  0  0  0  0  0  0  0
   17.1101  -20.1184    0.0000 C   0  0  0  0  0  0  0  0  0  0  0  0
   16.4007  -19.7170    0.0000 C   0  0  0  0  0  0  0  0  0  0  0  0
  4  1  2  0
  1  2  1  0
  2  3  2  0
  3  5  1  0
  4  5  1  0
  5  6  1  0
  6  7  2  0
  7  8  1  0
  8  4  1  0
  7  9  1  0
  9 10  2  0
 10 11  1  0
 11 12  2  0
 12 13  1  0
 13 14  2  0
 14  9  1  0
 14 15  1  0
 15 16  1  0
 16 17  2  0
 17 18  1  0
 18 19  2  0
 19 20  1  0
 20 21  2  0
 21 16  1  0
M  END
> <chembl_id>
CHEMBL4574591

> <chembl_pref_name>
None

$$$$
CHEMBL3976505
     RDKit          2D

 22 25  0  0  0  0  0  0  0  0999 V2000
   13.2335  -12.9260    0.0000 C   0  0  0  0  0  0  0  0  0  0  0  0
   12.5244  -13.3346    0.0000 N   0  0  0  0  0  0  0  0  0  0  0  0
   11.8194  -12.9260    0.0000 C   0  0  0  0  0  0  0  0  0  0  0  0
   11.8194  -12.1088    0.0000 C   0  0  0  0  0  0  0  0  0  0  0  0
   12.5244  -11.7002    0.0000 C   0  0  0  0  0  0  0  0  0  0  0  0
   13.2335  -12.1088    0.0000 N   0  0  0  0  0  0  0  0  0  0  0  0
   11.0422  -11.8583    0.0000 C   0  0  0  0  0  0  0  0  0  0  0  0
   10.5621  -12.5174    0.0000 C   0  0  0  0  0  0  0  0  0  0  0  0
   11.0422  -13.1807    0.0000 S   0  0  0  0  0  0  0  0  0  0  0  0
    9.7848  -12.2669    0.0000 C   0  0  0  0  0  0  0  0  0  0  0  0
    9.7848  -11.4497    0.0000 C   0  0  0  0  0  0  0  0  0  0  0  0
   10.5621  -11.1950    0.0000 C   0  0  0  0  0  0  0  0  0  0  0  0
   12.5244  -10.8830    0.0000 N   0  0  0  0  0  0  0  0  0  0  0  0
   13.2335  -10.4744    0.0000 N   0  0  0  0  0  0  0  0  0  0  0  0
   13.2335   -9.6572    0.0000 C   0  0  0  0  0  0  0  0  0  0  0  0
   13.9426   -9.2487    0.0000 C   0  0  0  0  0  0  0  0  0  0  0  0
   12.5244   -9.2487    0.0000 C   0  0  0  0  0  0  0  0  0  0  0  0
   11.8194   -9.6572    0.0000 C   0  0  0  0  0  0  0  0  0  0  0  0
   12.5244   -8.4315    0.0000 N   0  0  0  0  0  0  0  0  0  0  0  0
   11.1104   -9.2487    0.0000 C   0  0  0  0  0  0  0  0  0  0  0  0
   11.1104   -8.4315    0.0000 C   0  0  0  0  0  0  0  0  0  0  0  0
   11.8194   -8.0229    0.0000 C   0  0  0  0  0  0  0  0  0  0  0  0
  1  2  1  0
  2  3  2  0
  3  4  1  0
  4  5  2  0
  5  6  1  0
  1  6  2  0
  7  8  2  0
  8  9  1  0
 10 11  1  0
 11 12  1  0
  7 12  1  0
  8 10  1  0
  3  9  1  0
  4  7  1  0
 13 14  1  0
 15 16  1  0
 17 18  1  0
 17 19  2  0
 18 20  2  0
 20 21  1  0
 21 22  2  0
 19 22  1  0
 15 17  1  0
 14 15  2  0
  5 13  1  0
M  END
> <chembl_id>
CHEMBL3976505

> <chembl_pref_name>
None

$$$$
CHEMBL1771794
     RDKit          2D

 24 26  0  0  0  0  0  0  0  0999 V2000
   -1.8764   -6.5291    0.0000 C   0  0  0  0  0  0  0  0  0  0  0  0
   -1.8776   -7.3565    0.0000 C   0  0  0  0  0  0  0  0  0  0  0  0
   -1.1628   -7.7694    0.0000 C   0  0  0  0  0  0  0  0  0  0  0  0
   -1.1646   -6.1164    0.0000 C   0  0  0  0  0  0  0  0  0  0  0  0
   -0.4492   -6.5255    0.0000 C   0  0  0  0  0  0  0  0  0  0  0  0
   -0.4504   -7.3586    0.0000 C   0  0  0  0  0  0  0  0  0  0  0  0
    0.2665   -7.7738    0.0000 N   0  0  0  0  0  0  0  0  0  0  0  0
    0.9892   -7.3606    0.0000 C   0  0  0  0  0  0  0  0  0  0  0  0
    0.9904   -6.5276    0.0000 C   0  0  0  0  0  0  0  0  0  0  0  0
    0.2689   -6.1077    0.0000 C   0  0  0  0  0  0  0  0  0  0  0  0
    1.7025   -7.7752    0.0000 C   0  0  0  0  0  0  0  0  0  0  0  0
   -2.5924   -7.7684    0.0000 O   0  0  0  0  0  0  0  0  0  0  0  0
   -3.3065   -7.3554    0.0000 C   0  0  0  0  0  0  0  0  0  0  0  0
   -4.0213   -7.7673    0.0000 C   0  0  0  0  0  0  0  0  0  0  0  0
    0.2689   -5.2827    0.0000 N   0  0  0  0  0  0  0  0  0  0  0  0
    0.9834   -4.8702    0.0000 N   0  0  0  0  0  0  0  0  0  0  0  0
    1.6979   -5.2828    0.0000 C   0  0  0  0  0  0  0  0  0  0  0  0
    2.4124   -4.8703    0.0000 C   0  0  0  0  0  0  0  0  0  0  0  0
    1.6978   -6.1078    0.0000 O   0  0  0  0  0  0  0  0  0  0  0  0
    3.1635   -5.2004    0.0000 N   0  0  0  0  0  0  0  0  0  0  0  0
    3.7156   -4.5873    0.0000 C   0  0  0  0  0  0  0  0  0  0  0  0
    3.3031   -3.8728    0.0000 S   0  0  0  0  0  0  0  0  0  0  0  0
    2.4962   -4.0444    0.0000 C   0  0  0  0  0  0  0  0  0  0  0  0
    2.4042   -5.6917    0.0000 H   0  0  0  0  0  0  0  0  0  0  0  0
  2 12  1  0
  2  3  1  0
 12 13  1  0
  3  6  2  0
 13 14  1  0
  1  2  2  0
 10 15  1  0
  5  4  2  0
 15 16  1  0
  4  1  1  0
 16 17  1  0
  5 10  1  0
 17 18  1  0
  6  7  1  0
 17 19  2  0
 18 20  1  0
  7  8  2  0
  8  9  1  0
  9 10  2  0
  5  6  1  0
 20 21  1  0
 21 22  1  0
 22 23  1  0
 23 18  1  0
  8 11  1  0
 18 24  1  1
M  END
> <chembl_id>
CHEMBL1771794

> <chembl_pref_name>
None

$$$$
CHEMBL4094565
     RDKit          2D

 38 40  0  0  0  0  0  0  0  0999 V2000
    5.3654  -11.8905    0.0000 O   0  0  0  0  0  0  0  0  0  0  0  0
    4.9609  -11.1848    0.0000 S   0  0  0  0  0  0  0  0  0  0  0  0
    4.5520  -11.8879    0.0000 O   0  0  0  0  0  0  0  0  0  0  0  0
   13.0379   -8.8447    0.0000 O   0  0  0  0  0  0  0  0  0  0  0  0
   13.4506   -9.5545    0.0000 S   0  0  0  0  0  0  0  0  0  0  0  0
   13.8591   -8.8422    0.0000 O   0  0  0  0  0  0  0  0  0  0  0  0
    8.5021   -9.9549    0.0000 C   0  0  0  0  0  0  0  0  0  0  0  0
    8.5021  -10.7721    0.0000 N   0  0  0  0  0  0  0  0  0  0  0  0
    9.2074  -11.1765    0.0000 C   0  0  0  0  0  0  0  0  0  0  0  0
    9.9126  -10.7721    0.0000 C   0  0  0  0  0  0  0  0  0  0  0  0
    9.9126   -9.9549    0.0000 N   0  0  0  0  0  0  0  0  0  0  0  0
    9.2074   -9.5422    0.0000 C   0  0  0  0  0  0  0  0  0  0  0  0
   10.6216   -9.5484    0.0000 C   0  0  0  0  0  0  0  0  0  0  0  0
   11.3281   -9.9590    0.0000 C   0  0  0  0  0  0  0  0  0  0  0  0
   12.0370   -9.5525    0.0000 C   0  0  0  0  0  0  0  0  0  0  0  0
   12.7435   -9.9632    0.0000 N   0  0  0  0  0  0  0  0  0  0  0  0
   14.1589   -9.9673    0.0000 C   0  0  0  0  0  0  0  0  0  0  0  0
   14.1512  -10.7855    0.0000 C   0  0  0  0  0  0  0  0  0  0  0  0
   14.8569  -11.1961    0.0000 C   0  0  0  0  0  0  0  0  0  0  0  0
   15.5668  -10.7895    0.0000 C   0  0  0  0  0  0  0  0  0  0  0  0
   15.5666   -9.9681    0.0000 C   0  0  0  0  0  0  0  0  0  0  0  0
   14.8603   -9.5612    0.0000 C   0  0  0  0  0  0  0  0  0  0  0  0
    7.7950  -11.1817    0.0000 C   0  0  0  0  0  0  0  0  0  0  0  0
    7.0867  -10.7741    0.0000 C   0  0  0  0  0  0  0  0  0  0  0  0
    6.3796  -11.1837    0.0000 C   0  0  0  0  0  0  0  0  0  0  0  0
    5.6713  -10.7762    0.0000 N   0  0  0  0  0  0  0  0  0  0  0  0
    4.2558  -10.7782    0.0000 C   0  0  0  0  0  0  0  0  0  0  0  0
    4.2540   -9.9620    0.0000 C   0  0  0  0  0  0  0  0  0  0  0  0
    3.5465   -9.5545    0.0000 C   0  0  0  0  0  0  0  0  0  0  0  0
    2.8407   -9.9642    0.0000 C   0  0  0  0  0  0  0  0  0  0  0  0
    2.8451  -10.7856    0.0000 C   0  0  0  0  0  0  0  0  0  0  0  0
    3.5503  -11.1894    0.0000 C   0  0  0  0  0  0  0  0  0  0  0  0
   16.2739  -11.1992    0.0000 C   0  0  0  0  0  0  0  0  0  0  0  0
   16.2725  -12.0164    0.0000 O   0  0  0  0  0  0  0  0  0  0  0  0
   16.9822  -10.7918    0.0000 O   0  0  0  0  0  0  0  0  0  0  0  0
    2.1314   -9.5583    0.0000 C   0  0  0  0  0  0  0  0  0  0  0  0
    2.1282   -8.7411    0.0000 O   0  0  0  0  0  0  0  0  0  0  0  0
    1.4253   -9.9696    0.0000 O   0  0  0  0  0  0  0  0  0  0  0  0
  2  1  2  0
  3  2  2  0
  5  4  2  0
  6  5  2  0
  7  8  1  0
  7 12  1  0
  8  9  1  0
  9 10  1  0
 10 11  1  0
 11 12  1  0
 11 13  1  0
 13 14  1  0
 14 15  1  0
 15 16  1  0
 16  5  1  0
  5 17  1  0
 17 18  2  0
 18 19  1  0
 19 20  2  0
 20 21  1  0
 21 22  2  0
 22 17  1  0
  8 23  1  0
 23 24  1  0
 24 25  1  0
 25 26  1  0
 26  2  1  0
  2 27  1  0
 27 28  2  0
 28 29  1  0
 29 30  2  0
 30 31  1  0
 31 32  2  0
 32 27  1  0
 20 33  1  0
 33 34  2  0
 33 35  1  0
 30 36  1  0
 36 37  2  0
 36 38  1  0
M  END
> <chembl_id>
CHEMBL4094565

> <chembl_pref_name>
None

$$$$
CHEMBL50
     RDKit          2D

 22 24  0  0  0  0  0  0  0  0999 V2000
    2.3383   -1.3500    0.0000 O   0  0  0  0  0  0  0  0  0  0  0  0
    1.2990   -0.7500    0.0000 C   0  0  0  0  0  0  0  0  0  0  0  0
    1.2990    0.7500    0.0000 C   0  0  0  0  0  0  0  0  0  0  0  0
    0.0000    1.5000    0.0000 O   0  0  0  0  0  0  0  0  0  0  0  0
   -1.2990    0.7500    0.0000 C   0  0  0  0  0  0  0  0  0  0  0  0
   -2.5981    1.5000    0.0000 C   0  0  0  0  0  0  0  0  0  0  0  0
   -3.8971    0.7500    0.0000 C   0  0  0  0  0  0  0  0  0  0  0  0
   -4.9364    1.3500    0.0000 O   0  0  0  0  0  0  0  0  0  0  0  0
   -3.8971   -0.7500    0.0000 C   0  0  0  0  0  0  0  0  0  0  0  0
   -2.5981   -1.5000    0.0000 C   0  0  0  0  0  0  0  0  0  0  0  0
   -2.5981   -2.7000    0.0000 O   0  0  0  0  0  0  0  0  0  0  0  0
   -1.2990   -0.7500    0.0000 C   0  0  0  0  0  0  0  0  0  0  0  0
    0.0000   -1.5000    0.0000 C   0  0  0  0  0  0  0  0  0  0  0  0
    0.0000   -2.7000    0.0000 O   0  0  0  0  0  0  0  0  0  0  0  0
    2.5987    1.5004    0.0000 C   0  0  0  0  0  0  0  0  0  0  0  0
    3.8991    0.7525    0.0000 C   0  0  0  0  0  0  0  0  0  0  0  0
    5.1969    1.5046    0.0000 C   0  0  0  0  0  0  0  0  0  0  0  0
    5.1945    3.0046    0.0000 C   0  0  0  0  0  0  0  0  0  0  0  0
    6.2328    3.6062    0.0000 O   0  0  0  0  0  0  0  0  0  0  0  0
    3.8943    3.7525    0.0000 C   0  0  0  0  0  0  0  0  0  0  0  0
    3.8924    4.9525    0.0000 O   0  0  0  0  0  0  0  0  0  0  0  0
    2.5964    3.0004    0.0000 C   0  0  0  0  0  0  0  0  0  0  0  0
  1  2  1  0
  2  3  2  0
  3  4  1  0
  4  5  1  0
  5  6  2  0
  6  7  1  0
  7  8  1  0
  7  9  2  0
  9 10  1  0
 10 11  1  0
 10 12  2  0
 12  5  1  0
 12 13  1  0
 13  2  1  0
 13 14  2  0
  3 15  1  0
 15 16  2  0
 16 17  1  0
 17 18  2  0
 18 19  1  0
 18 20  1  0
 20 21  1  0
 20 22  2  0
 22 15  1  0
M  END
> <chembl_id>
CHEMBL50

> <chembl_pref_name>
QUERCETIN

$$$$
CHEMBL1813561
     RDKit          2D

 64 69  0  0  0  0  0  0  0  0999 V2000
   10.5649   -6.8835    0.0000 O   0  0  0  0  0  0  0  0  0  0  0  0
    9.7442   -6.7590    0.0000 S   0  0  0  0  0  0  0  0  0  0  0  0
    9.7873   -7.5843    0.0000 O   0  0  0  0  0  0  0  0  0  0  0  0
    6.4968   -3.6066    0.0000 O   0  0  0  0  0  0  0  0  0  0  0  0
    5.7853   -3.1953    0.0000 C   0  0  0  0  0  0  0  0  0  0  0  0
    4.3647   -2.3597    0.0000 N   0  0  0  0  0  0  0  0  0  0  0  0
    4.3672   -3.1898    0.0000 C   0  0  0  0  0  0  0  0  0  0  0  0
    5.0781   -3.6002    0.0000 C   0  0  0  0  0  0  0  0  0  0  0  0
    5.0815   -1.9493    0.0000 C   0  0  0  0  0  0  0  0  0  0  0  0
    5.7913   -2.3637    0.0000 C   0  0  0  0  0  0  0  0  0  0  0  0
    6.5000   -1.9611    0.0000 C   0  0  0  0  0  0  0  0  0  0  0  0
    6.5053   -1.1372    0.0000 C   0  0  0  0  0  0  0  0  0  0  0  0
    5.7890   -0.7253    0.0000 C   0  0  0  0  0  0  0  0  0  0  0  0
    5.0846   -1.1340    0.0000 C   0  0  0  0  0  0  0  0  0  0  0  0
    5.7890    0.0973    0.0000 O   0  0  0  0  0  0  0  0  0  0  0  0
    6.5045    0.5126    0.0000 C   0  0  0  0  0  0  0  0  0  0  0  0
    3.6514   -3.6011    0.0000 C   0  0  0  0  0  0  0  0  0  0  0  0
    2.9344   -3.1856    0.0000 C   0  0  0  0  0  0  0  0  0  0  0  0
    2.2258   -3.6005    0.0000 C   0  0  0  0  0  0  0  0  0  0  0  0
    2.2247   -4.4248    0.0000 C   0  0  0  0  0  0  0  0  0  0  0  0
    2.9400   -4.8345    0.0000 C   0  0  0  0  0  0  0  0  0  0  0  0
    3.6526   -4.4226    0.0000 C   0  0  0  0  0  0  0  0  0  0  0  0
    6.4968   -4.4314    0.0000 C   0  0  0  0  0  0  0  0  0  0  0  0
    5.7797   -4.8387    0.0000 C   0  0  0  0  0  0  0  0  0  0  0  0
    5.7765   -5.6594    0.0000 C   0  0  0  0  0  0  0  0  0  0  0  0
    6.4871   -6.0733    0.0000 C   0  0  0  0  0  0  0  0  0  0  0  0
    7.2052   -5.6609    0.0000 C   0  0  0  0  0  0  0  0  0  0  0  0
    7.2072   -4.8416    0.0000 C   0  0  0  0  0  0  0  0  0  0  0  0
    6.4845   -6.8978    0.0000 C   0  0  0  0  0  0  0  0  0  0  0  0
    5.0531   -6.8979    0.0000 C   0  0  0  0  0  0  0  0  0  0  0  0
    4.3373   -7.3135    0.0000 C   0  0  0  0  0  0  0  0  0  0  0  0
    5.0531   -6.0754    0.0000 O   0  0  0  0  0  0  0  0  0  0  0  0
    4.3373   -8.1361    0.0000 C   0  0  0  0  0  0  0  0  0  0  0  0
    3.6215   -8.5515    0.0000 C   0  0  0  0  0  0  0  0  0  0  0  0
    5.0240   -8.5896    0.0000 C   0  0  0  0  0  0  0  0  0  0  0  0
    4.3696   -8.9159    0.0000 C   0  0  0  0  0  0  0  0  0  0  0  0
    7.1960   -7.3154    0.0000 C   0  0  0  0  0  0  0  0  0  0  0  0
    7.7438   -6.8999    0.0000 O   0  0  0  0  0  0  0  0  0  0  0  0
    7.9069   -8.5544    0.0000 C   0  0  0  0  0  0  0  0  0  0  0  0
    7.9069   -9.3813    0.0000 C   0  0  0  0  0  0  0  0  0  0  0  0
    8.6257   -8.1391    0.0000 C   0  0  0  0  0  0  0  0  0  0  0  0
    8.6237   -9.7932    0.0000 C   0  0  0  0  0  0  0  0  0  0  0  0
    8.6237  -10.6194    0.0000 C   0  0  0  0  0  0  0  0  0  0  0  0
    9.3371   -8.5503    0.0000 O   0  0  0  0  0  0  0  0  0  0  0  0
    7.6835   -4.1724    0.0000 C   0  0  0  0  0  0  0  0  0  0  0  0
    8.5160   -4.1678    0.0000 C   0  0  0  0  0  0  0  0  0  0  0  0
    8.9323   -4.8861    0.0000 C   0  0  0  0  0  0  0  0  0  0  0  0
    9.7657   -4.8857    0.0000 C   0  0  0  0  0  0  0  0  0  0  0  0
   10.1786   -5.6075    0.0000 C   0  0  0  0  0  0  0  0  0  0  0  0
   11.0105   -5.6035    0.0000 C   0  0  0  0  0  0  0  0  0  0  0  0
   11.4243   -4.8796    0.0000 C   0  0  0  0  0  0  0  0  0  0  0  0
   11.0011   -4.1576    0.0000 C   0  0  0  0  0  0  0  0  0  0  0  0
   10.1713   -4.1671    0.0000 C   0  0  0  0  0  0  0  0  0  0  0  0
    2.9058   -7.3135    0.0000 C   0  0  0  0  0  0  0  0  0  0  0  0
    2.9058   -8.1361    0.0000 O   0  0  0  0  0  0  0  0  0  0  0  0
    2.1899   -6.8979    0.0000 O   0  0  0  0  0  0  0  0  0  0  0  0
    1.4784   -7.3135    0.0000 C   0  0  0  0  0  0  0  0  0  0  0  0
    0.6689   -7.2418    0.0000 C   0  0  0  0  0  0  0  0  0  0  0  0
    1.3826   -8.3196    0.0000 C   0  0  0  0  0  0  0  0  0  0  0  0
    5.7688   -7.3134    0.0000 N   0  0  0  0  0  0  0  0  0  0  0  0
    3.6215   -6.8979    0.0000 N   0  0  0  0  0  0  0  0  0  0  0  0
    7.1947   -8.1383    0.0000 N   0  0  0  0  0  0  0  0  0  0  0  0
    8.6146   -7.0468    0.0000 N   0  0  0  0  0  0  0  0  0  0  0  0
    0.9449   -7.9445    0.0000 C   0  0  0  0  0  0  0  0  0  0  0  0
  5 10  2  0
  9  6  2  0
  6  7  1  0
  7  8  2  0
  8  5  1  0
  9 10  1  0
 10 11  1  0
 11 12  2  0
 12 13  1  0
 13 14  2  0
 14  9  1  0
 13 15  1  0
 15 16  1  0
  7 17  1  0
 17 18  2  0
 18 19  1  0
 19 20  2  0
 20 21  1  0
 21 22  2  0
 22 17  1  0
  4 23  1  0
 23 24  2  0
 24 25  1  0
 25 26  2  0
 26 27  1  0
 27 28  2  0
 28 23  1  0
 29 26  1  0
 29 60  1  1
 60 30  1  0
 30 31  1  0
 30 32  2  0
 31 61  1  0
 31 33  1  6
 33 34  1  0
 33 35  1  0
 33 36  1  0
 29 37  1  0
 37 62  1  0
 37 38  2  0
 62 39  1  0
 39 40  1  6
 39 41  1  0
 40 42  1  0
 42 43  1  0
 41 44  2  0
 41 63  1  0
 63  2  1  0
 28 45  1  0
 45 46  2  0
 46 47  1  0
 47 48  1  0
 48 49  2  0
 49 50  1  0
 50 51  2  0
 51 52  1  0
 52 53  2  0
 53 48  1  0
  2 49  1  0
 61 54  1  0
 54 55  2  0
 54 56  1  0
 56 57  1  0
 57 58  1  0
 57 59  1  0
 57 64  1  0
  2  1  2  0
  3  2  2  0
  4  5  1  0
M  END
> <chembl_id>
CHEMBL1813561

> <chembl_pref_name>
None

$$$$
CHEMBL3937177
     RDKit          2D

 25 28  0  0  0  0  0  0  0  0999 V2000
   12.7109  -10.1793    0.0000 C   0  0  0  0  0  0  0  0  0  0  0  0
   13.4125   -9.7621    0.0000 C   0  0  0  0  0  0  0  0  0  0  0  0
   14.1247  -10.1619    0.0000 C   0  0  0  0  0  0  0  0  0  0  0  0
   14.8264   -9.7447    0.0000 C   0  0  0  0  0  0  0  0  0  0  0  0
   14.8157   -8.9276    0.0000 C   0  0  0  0  0  0  0  0  0  0  0  0
   14.1035   -8.5277    0.0000 C   0  0  0  0  0  0  0  0  0  0  0  0
   13.4018   -8.9449    0.0000 C   0  0  0  0  0  0  0  0  0  0  0  0
   11.9945   -9.7794    0.0000 O   0  0  0  0  0  0  0  0  0  0  0  0
   12.7174  -10.9964    0.0000 N   0  0  0  0  0  0  0  0  0  0  0  0
   12.0157  -11.4136    0.0000 N   0  0  0  0  0  0  0  0  0  0  0  0
   12.7493  -13.4477    0.0000 C   0  0  0  0  0  0  0  0  0  0  0  0
   12.0435  -13.8649    0.0000 N   0  0  0  0  0  0  0  0  0  0  0  0
   11.3312  -13.4650    0.0000 C   0  0  0  0  0  0  0  0  0  0  0  0
   11.3247  -12.6479    0.0000 C   0  0  0  0  0  0  0  0  0  0  0  0
   12.0264  -12.2307    0.0000 C   0  0  0  0  0  0  0  0  0  0  0  0
   12.7386  -12.6306    0.0000 N   0  0  0  0  0  0  0  0  0  0  0  0
   10.5430  -12.4032    0.0000 C   0  0  0  0  0  0  0  0  0  0  0  0
   10.0708  -13.0709    0.0000 C   0  0  0  0  0  0  0  0  0  0  0  0
   10.5587  -13.7254    0.0000 S   0  0  0  0  0  0  0  0  0  0  0  0
    9.2548  -12.9933    0.0000 C   0  0  0  0  0  0  0  0  0  0  0  0
    8.9152  -12.2521    0.0000 C   0  0  0  0  0  0  0  0  0  0  0  0
    9.3874  -11.5844    0.0000 C   0  0  0  0  0  0  0  0  0  0  0  0
   10.1993  -11.6620    0.0000 C   0  0  0  0  0  0  0  0  0  0  0  0
   14.0970   -7.7106    0.0000 O   0  0  0  0  0  0  0  0  0  0  0  0
   14.1354  -10.9790    0.0000 O   0  0  0  0  0  0  0  0  0  0  0  0
  1  2  1  0
  2  3  1  0
  3  4  2  0
  4  5  1  0
  5  6  2  0
  6  7  1  0
  2  7  2  0
  1  8  2  0
  9 10  1  0
 11 12  1  0
 12 13  2  0
 13 14  1  0
 14 15  2  0
 15 16  1  0
 11 16  2  0
 17 18  2  0
 18 19  1  0
 20 21  1  0
 21 22  1  0
 22 23  1  0
 17 23  1  0
 18 20  1  0
 13 19  1  0
 14 17  1  0
 10 15  1  0
  1  9  1  0
  6 24  1  0
  3 25  1  0
M  END
> <chembl_id>
CHEMBL3937177

> <chembl_pref_name>
None

$$$$
CHEMBL607670
     RDKit          2D

 22 24  0  0  0  0  0  0  0  0999 V2000
    6.2667   -6.1667    0.0000 N   0  0  0  0  0  0  0  0  0  0  0  0
    6.5667   -5.4000    0.0000 C   0  0  0  0  0  0  0  0  0  0  0  0
    7.4000   -5.4542    0.0000 C   0  0  0  0  0  0  0  0  0  0  0  0
    5.4667   -6.3792    0.0000 C   0  0  0  0  0  0  0  0  0  0  0  0
    6.1375   -4.7042    0.0000 C   0  0  0  0  0  0  0  0  0  0  0  0
    6.4125   -3.9167    0.0000 N   0  0  0  0  0  0  0  0  0  0  0  0
    7.6042   -6.2625    0.0000 N   0  0  0  0  0  0  0  0  0  0  0  0
    7.8917   -4.0917    0.0000 N   0  0  0  0  0  0  0  0  0  0  0  0
    7.9792   -4.9167    0.0000 C   0  0  0  0  0  0  0  0  0  0  0  0
    5.2125   -7.1542    0.0000 C   0  0  0  0  0  0  0  0  0  0  0  0
    7.1875   -3.6542    0.0000 C   0  0  0  0  0  0  0  0  0  0  0  0
    6.9000   -6.6917    0.0000 C   0  0  0  0  0  0  0  0  0  0  0  0
    4.7917   -5.8917    0.0000 O   0  0  0  0  0  0  0  0  0  0  0  0
    4.3875   -7.1625    0.0000 C   0  0  0  0  0  0  0  0  0  0  0  0
    4.1292   -6.3667    0.0000 C   0  0  0  0  0  0  0  0  0  0  0  0
    5.3167   -4.8292    0.0000 O   0  0  0  0  0  0  0  0  0  0  0  0
    8.6375   -5.4042    0.0000 O   0  0  0  0  0  0  0  0  0  0  0  0
    7.2792   -2.8375    0.0000 N   0  0  0  0  0  0  0  0  0  0  0  0
    5.6917   -7.8250    0.0000 O   0  0  0  0  0  0  0  0  0  0  0  0
    3.9000   -7.8292    0.0000 O   0  0  0  0  0  0  0  0  0  0  0  0
    3.3417   -6.1167    0.0000 C   0  0  0  0  0  0  0  0  0  0  0  0
    2.7292   -6.6625    0.0000 O   0  0  0  0  0  0  0  0  0  0  0  0
  2  1  1  0
  3  2  2  0
  4  1  1  0
  5  2  1  0
  6  5  1  0
  7 12  2  0
  8  9  1  0
  9  3  1  0
 10  4  1  0
 11  6  2  0
 12  1  1  0
 13  4  1  0
 14 10  1  0
 15 13  1  0
 16  5  2  0
 17  9  2  0
 18 11  1  0
 10 19  1  6
 14 20  1  6
 15 21  1  1
 22 21  1  0
  3  7  1  0
 15 14  1  0
  8 11  1  0
M  END
> <chembl_id>
CHEMBL607670

> <chembl_pref_name>
None

$$$$
CHEMBL4068893
     RDKit          2D

 16 17  0  0  0  0  0  0  0  0999 V2000
    7.8568  -11.0486    0.0000 C   0  0  0  0  0  0  0  0  0  0  0  0
    7.8557  -11.8681    0.0000 C   0  0  0  0  0  0  0  0  0  0  0  0
    8.5637  -12.2771    0.0000 C   0  0  0  0  0  0  0  0  0  0  0  0
    9.2734  -11.8676    0.0000 C   0  0  0  0  0  0  0  0  0  0  0  0
    9.2706  -11.0450    0.0000 C   0  0  0  0  0  0  0  0  0  0  0  0
    8.5619  -10.6397    0.0000 C   0  0  0  0  0  0  0  0  0  0  0  0
    8.5595   -9.8225    0.0000 O   0  0  0  0  0  0  0  0  0  0  0  0
    9.2660   -9.4118    0.0000 C   0  0  0  0  0  0  0  0  0  0  0  0
    9.9728   -9.8207    0.0000 C   0  0  0  0  0  0  0  0  0  0  0  0
   10.6788   -9.4106    0.0000 C   0  0  0  0  0  0  0  0  0  0  0  0
   10.6768   -8.5926    0.0000 C   0  0  0  0  0  0  0  0  0  0  0  0
    9.9629   -8.1863    0.0000 C   0  0  0  0  0  0  0  0  0  0  0  0
    9.2598   -8.5986    0.0000 C   0  0  0  0  0  0  0  0  0  0  0  0
    8.5635  -13.0942    0.0000 C   0  0  0  0  0  0  0  0  0  0  0  0
    9.2711  -13.5030    0.0000 N   0  0  0  0  0  0  0  0  0  0  0  0
    7.1490  -10.6401    0.0000 Cl  0  0  0  0  0  0  0  0  0  0  0  0
  1  2  2  0
  2  3  1  0
  3  4  2  0
  4  5  1  0
  5  6  2  0
  6  1  1  0
  6  7  1  0
  7  8  1  0
  8  9  2  0
  9 10  1  0
 10 11  2  0
 11 12  1  0
 12 13  2  0
 13  8  1  0
  3 14  1  0
 14 15  1  0
  1 16  1  0
M  END
> <chembl_id>
CHEMBL4068893

> <chembl_pref_name>
None

$$$$
CHEMBL1589514
     RDKit          2D

 23 25  0  0  0  0  0  0  0  0999 V2000
   -3.3326    1.6501    0.0000 S   0  0  0  0  0  0  0  0  0  0  0  0
   -0.4747    1.6501    0.0000 O   0  0  0  0  0  0  0  0  0  0  0  0
   -1.9036   -0.8249    0.0000 O   0  0  0  0  0  0  0  0  0  0  0  0
   -1.1421   -1.3098    0.0000 O   0  0  0  0  0  0  0  0  0  0  0  0
   -1.9036    4.9501    0.0000 O   0  0  0  0  0  0  0  0  0  0  0  0
   -1.9036    1.6501    0.0000 N   0  0  0  0  0  0  0  0  0  0  0  0
   -2.6181    0.4126    0.0000 N   0  0  0  0  0  0  0  0  0  0  0  0
   -1.1891    1.2376    0.0000 C   0  0  0  0  0  0  0  0  0  0  0  0
   -1.1891    0.4126    0.0000 C   0  0  0  0  0  0  0  0  0  0  0  0
   -2.6181    1.2376    0.0000 C   0  0  0  0  0  0  0  0  0  0  0  0
   -1.9036    2.4751    0.0000 C   0  0  0  0  0  0  0  0  0  0  0  0
   -1.9036    0.0001    0.0000 C   0  0  0  0  0  0  0  0  0  0  0  0
   -0.4747    0.0001    0.0000 C   0  0  0  0  0  0  0  0  0  0  0  0
   -2.6181    2.8876    0.0000 C   0  0  0  0  0  0  0  0  0  0  0  0
   -1.1891    2.8876    0.0000 C   0  0  0  0  0  0  0  0  0  0  0  0
   -0.4747   -0.8249    0.0000 C   0  0  0  0  0  0  0  0  0  0  0  0
   -1.9036    4.1251    0.0000 C   0  0  0  0  0  0  0  0  0  0  0  0
   -2.6181    3.7126    0.0000 C   0  0  0  0  0  0  0  0  0  0  0  0
   -1.1891    3.7126    0.0000 C   0  0  0  0  0  0  0  0  0  0  0  0
    0.1928   -1.3098    0.0000 C   0  0  0  0  0  0  0  0  0  0  0  0
   -0.8872   -2.0944    0.0000 C   0  0  0  0  0  0  0  0  0  0  0  0
   -0.0622   -2.0944    0.0000 C   0  0  0  0  0  0  0  0  0  0  0  0
   -2.6181    5.3626    0.0000 C   0  0  0  0  0  0  0  0  0  0  0  0
  1 10  2  0
  2  8  2  0
  3 12  2  0
  4 16  1  0
  4 21  1  0
  5 17  1  0
  5 23  1  0
  6  8  1  0
  6 10  1  0
  6 11  1  0
  7 10  1  0
  7 12  1  0
  8  9  1  0
  9 12  1  0
  9 13  2  0
 11 14  2  0
 11 15  1  0
 13 16  1  0
 14 18  1  0
 15 19  2  0
 16 20  2  0
 17 18  2  0
 17 19  1  0
 20 22  1  0
 21 22  2  0
M  END
> <chembl_id>
CHEMBL1589514

> <chembl_pref_name>
None

$$$$
CHEMBL116438
     RDKit          2D

 27 28  0  0  0  0  0  0  0  0999 V2000
    3.6387   -0.8963    0.0000 C   0  0  0  0  0  0  0  0  0  0  0  0
    2.6003   -1.4977    0.0000 O   0  0  0  0  0  0  0  0  0  0  0  0
    1.2990   -0.7500    0.0000 C   0  0  0  0  0  0  0  0  0  0  0  0
    1.2990    0.7500    0.0000 C   0  0  0  0  0  0  0  0  0  0  0  0
    0.0000    1.5000    0.0000 C   0  0  0  0  0  0  0  0  0  0  0  0
   -0.0031    3.0008    0.0000 C   0  0  0  0  0  0  0  0  0  0  0  0
   -1.3039    3.7494    0.0000 C   0  0  0  0  0  0  0  0  0  0  0  0
   -1.3070    5.2502    0.0000 C   0  0  0  0  0  0  0  0  0  0  0  0
   -2.6078    5.9988    0.0000 C   0  0  0  0  0  0  0  0  0  0  0  0
   -2.6109    7.4996    0.0000 C   0  0  0  0  0  0  0  0  0  0  0  0
   -1.5728    8.1014    0.0000 O   0  0  0  0  0  0  0  0  0  0  0  0
   -3.9118    8.2481    0.0000 C   0  0  0  0  0  0  0  0  0  0  0  0
   -3.9149    9.7490    0.0000 C   0  0  0  0  0  0  0  0  0  0  0  0
   -5.2157   10.4975    0.0000 C   0  0  0  0  0  0  0  0  0  0  0  0
   -5.2210   11.9975    0.0000 C   0  0  0  0  0  0  0  0  0  0  0  0
   -6.5226   12.7430    0.0000 C   0  0  0  0  0  0  0  0  0  0  0  0
   -7.8190   11.9885    0.0000 C   0  0  0  0  0  0  0  0  0  0  0  0
   -8.8603   12.5849    0.0000 O   0  0  0  0  0  0  0  0  0  0  0  0
   -7.8138   10.4885    0.0000 C   0  0  0  0  0  0  0  0  0  0  0  0
   -9.1094    9.7310    0.0000 O   0  0  0  0  0  0  0  0  0  0  0  0
   -9.1036    8.5310    0.0000 C   0  0  0  0  0  0  0  0  0  0  0  0
   -6.5122    9.7430    0.0000 C   0  0  0  0  0  0  0  0  0  0  0  0
   -0.2688    5.8520    0.0000 O   0  0  0  0  0  0  0  0  0  0  0  0
   -1.2990    0.7500    0.0000 C   0  0  0  0  0  0  0  0  0  0  0  0
   -1.2990   -0.7500    0.0000 C   0  0  0  0  0  0  0  0  0  0  0  0
    0.0000   -1.5000    0.0000 C   0  0  0  0  0  0  0  0  0  0  0  0
    0.0000   -2.7000    0.0000 O   0  0  0  0  0  0  0  0  0  0  0  0
  1  2  1  0
  2  3  1  0
  3  4  2  0
  4  5  1  0
  5  6  1  0
  6  7  2  0
  7  8  1  0
  8  9  2  0
  9 10  1  0
 10 11  2  0
 10 12  1  0
 12 13  2  0
 13 14  1  0
 14 15  2  0
 15 16  1  0
 16 17  2  0
 17 18  1  0
 17 19  1  0
 19 20  1  0
 20 21  1  0
 19 22  2  0
 22 14  1  0
  8 23  1  0
  5 24  2  0
 24 25  1  0
 25 26  2  0
 26  3  1  0
 26 27  1  0
M  END
> <chembl_id>
CHEMBL116438

> <chembl_pref_name>
CURCUMIN

$$$$
CHEMBL286494
     RDKit          2D

 38 45  0  0  0  0  0  0  0  0999 V2000
   -4.3373    5.0631    0.0000 C   0  0  0  0  0  0  0  0  0  0  0  0
   -5.0517    4.6506    0.0000 C   0  0  0  0  0  0  0  0  0  0  0  0
   -5.0517    3.8256    0.0000 C   0  0  0  0  0  0  0  0  0  0  0  0
   -4.3373    3.4131    0.0000 C   0  0  0  0  0  0  0  0  0  0  0  0
   -3.6228    3.8256    0.0000 C   0  0  0  0  0  0  0  0  0  0  0  0
   -3.6228    4.6506    0.0000 C   0  0  0  0  0  0  0  0  0  0  0  0
   -2.9083    5.0631    0.0000 C   0  0  0  0  0  0  0  0  0  0  0  0
   -2.9083    3.4131    0.0000 C   0  0  0  0  0  0  0  0  0  0  0  0
   -2.1939    3.8256    0.0000 C   0  0  0  0  0  0  0  0  0  0  0  0
   -2.1939    4.6506    0.0000 C   0  0  0  0  0  0  0  0  0  0  0  0
   -1.4794    5.0631    0.0000 C   0  0  0  0  0  0  0  0  0  0  0  0
   -1.4794    3.4131    0.0000 C   0  0  0  0  0  0  0  0  0  0  0  0
   -0.7649    3.8256    0.0000 C   0  0  0  0  0  0  0  0  0  0  0  0
   -0.7649    4.6506    0.0000 C   0  0  0  0  0  0  0  0  0  0  0  0
   -4.3373    5.8882    0.0000 O   0  0  0  0  0  0  0  0  0  0  0  0
   -2.9083    5.8882    0.0000 O   0  0  0  0  0  0  0  0  0  0  0  0
   -1.4794    5.8882    0.0000 O   0  0  0  0  0  0  0  0  0  0  0  0
   -1.4794    2.5881    0.0000 C   0  0  0  0  0  0  0  0  0  0  0  0
   -0.7649    2.1756    0.0000 C   0  0  0  0  0  0  0  0  0  0  0  0
   -0.0505    2.5881    0.0000 O   0  0  0  0  0  0  0  0  0  0  0  0
   -0.0505    3.4131    0.0000 O   0  0  0  0  0  0  0  0  0  0  0  0
   -2.9083    2.5881    0.0000 C   0  0  0  0  0  0  0  0  0  0  0  0
   -2.1939    2.1756    0.0000 C   0  0  0  0  0  0  0  0  0  0  0  0
   -4.3373    2.5881    0.0000 C   0  0  0  0  0  0  0  0  0  0  0  0
   -3.6228    2.1756    0.0000 C   0  0  0  0  0  0  0  0  0  0  0  0
   -5.7662    3.4131    0.0000 C   0  0  0  0  0  0  0  0  0  0  0  0
   -5.7662    2.5881    0.0000 C   0  0  0  0  0  0  0  0  0  0  0  0
   -5.0517    2.1756    0.0000 C   0  0  0  0  0  0  0  0  0  0  0  0
   -5.0517    1.3506    0.0000 C   0  0  0  0  0  0  0  0  0  0  0  0
   -4.3373    0.9381    0.0000 C   0  0  0  0  0  0  0  0  0  0  0  0
   -3.6228    1.3506    0.0000 C   0  0  0  0  0  0  0  0  0  0  0  0
   -2.9083    0.9381    0.0000 C   0  0  0  0  0  0  0  0  0  0  0  0
   -2.1939    1.3506    0.0000 C   0  0  0  0  0  0  0  0  0  0  0  0
   -1.4794    0.9381    0.0000 C   0  0  0  0  0  0  0  0  0  0  0  0
   -0.7649    1.3506    0.0000 C   0  0  0  0  0  0  0  0  0  0  0  0
   -2.9083    0.1130    0.0000 O   0  0  0  0  0  0  0  0  0  0  0  0
   -1.4794    0.1130    0.0000 O   0  0  0  0  0  0  0  0  0  0  0  0
   -4.3373    0.1130    0.0000 O   0  0  0  0  0  0  0  0  0  0  0  0
  1  2  2  0
  2  3  1  0
  3  4  2  0
  4  5  1  0
  5  6  2  0
  1  6  1  0
  8  9  1  0
  9 10  2  0
  7 10  1  0
  5  8  1  0
  7  6  1  0
 12 13  2  0
 13 14  1  0
 11 14  2  0
  9 12  1  0
 11 10  1  0
 15  1  1  0
  7 16  2  0
 11 17  1  0
 18 19  2  0
 19 20  1  0
 12 18  1  0
 13 21  1  0
 22 23  1  0
  8 22  2  0
 23 18  1  0
 24 25  1  0
  4 24  1  0
 25 22  1  0
 27 28  1  0
  3 26  1  0
 28 24  2  0
 29 30  2  0
 30 31  1  0
 28 29  1  0
 31 25  2  0
 32 33  1  0
 31 32  1  0
 33 23  2  0
 34 35  2  0
 33 34  1  0
 35 19  1  0
 32 36  2  0
 37 34  1  0
 30 38  1  0
M  END
> <chembl_id>
CHEMBL286494

> <chembl_pref_name>
HYPERICIN

$$$$
CHEMBL1771796
     RDKit          2D

 25 27  0  0  0  0  0  0  0  0999 V2000
   -2.0931  -12.9708    0.0000 C   0  0  0  0  0  0  0  0  0  0  0  0
   -2.0943  -13.7982    0.0000 C   0  0  0  0  0  0  0  0  0  0  0  0
   -1.3794  -14.2110    0.0000 C   0  0  0  0  0  0  0  0  0  0  0  0
   -1.3812  -12.5580    0.0000 C   0  0  0  0  0  0  0  0  0  0  0  0
   -0.6659  -12.9672    0.0000 C   0  0  0  0  0  0  0  0  0  0  0  0
   -0.6671  -13.8002    0.0000 C   0  0  0  0  0  0  0  0  0  0  0  0
    0.0498  -14.2155    0.0000 N   0  0  0  0  0  0  0  0  0  0  0  0
    0.7725  -13.8023    0.0000 C   0  0  0  0  0  0  0  0  0  0  0  0
    0.7737  -12.9692    0.0000 C   0  0  0  0  0  0  0  0  0  0  0  0
    0.0522  -12.5494    0.0000 C   0  0  0  0  0  0  0  0  0  0  0  0
    1.4858  -14.2168    0.0000 C   0  0  0  0  0  0  0  0  0  0  0  0
   -2.8091  -14.2101    0.0000 O   0  0  0  0  0  0  0  0  0  0  0  0
   -3.5232  -13.7970    0.0000 C   0  0  0  0  0  0  0  0  0  0  0  0
   -4.2380  -14.2090    0.0000 C   0  0  0  0  0  0  0  0  0  0  0  0
    0.0523  -11.7244    0.0000 N   0  0  0  0  0  0  0  0  0  0  0  0
    0.7668  -11.3119    0.0000 N   0  0  0  0  0  0  0  0  0  0  0  0
    1.4812  -11.7244    0.0000 S   0  0  0  0  0  0  0  0  0  0  0  0
    2.1957  -11.3120    0.0000 C   0  0  0  0  0  0  0  0  0  0  0  0
    0.8917  -12.3042    0.0000 O   0  0  0  0  0  0  0  0  0  0  0  0
    1.8875  -12.4333    0.0000 O   0  0  0  0  0  0  0  0  0  0  0  0
    2.9066  -11.7255    0.0000 C   0  0  0  0  0  0  0  0  0  0  0  0
    3.6206  -11.3137    0.0000 C   0  0  0  0  0  0  0  0  0  0  0  0
    3.6211  -10.4878    0.0000 C   0  0  0  0  0  0  0  0  0  0  0  0
    2.9016  -10.0755    0.0000 C   0  0  0  0  0  0  0  0  0  0  0  0
    2.1906  -10.4896    0.0000 C   0  0  0  0  0  0  0  0  0  0  0  0
  2 12  1  0
  2  3  1  0
 12 13  1  0
  3  6  2  0
 13 14  1  0
  1  2  2  0
 10 15  1  0
  5  4  2  0
 15 16  1  0
  4  1  1  0
 16 17  1  0
  5 10  1  0
 17 18  1  0
  6  7  1  0
 17 19  2  0
  7  8  2  0
 17 20  2  0
  8  9  1  0
 18 21  2  0
  9 10  2  0
 21 22  1  0
  5  6  1  0
 22 23  2  0
  8 11  1  0
 23 24  1  0
 24 25  2  0
 25 18  1  0
M  END
> <chembl_id>
CHEMBL1771796

> <chembl_pref_name>
None

$$$$
CHEMBL1813737
     RDKit          2D

 60 64  0  0  0  0  0  0  0  0999 V2000
    4.3411   -1.5108    0.0000 O   0  0  0  0  0  0  0  0  0  0  0  0
    3.5373   -1.2962    0.0000 S   0  0  0  0  0  0  0  0  0  0  0  0
    3.7533   -2.0995    0.0000 O   0  0  0  0  0  0  0  0  0  0  0  0
    0.2888    1.8558    0.0000 O   0  0  0  0  0  0  0  0  0  0  0  0
   -0.4243    2.2745    0.0000 C   0  0  0  0  0  0  0  0  0  0  0  0
   -1.8437    3.1049    0.0000 N   0  0  0  0  0  0  0  0  0  0  0  0
   -1.8449    2.2766    0.0000 C   0  0  0  0  0  0  0  0  0  0  0  0
   -1.1324    1.8668    0.0000 C   0  0  0  0  0  0  0  0  0  0  0  0
   -1.1275    3.5175    0.0000 C   0  0  0  0  0  0  0  0  0  0  0  0
   -0.4185    3.1024    0.0000 C   0  0  0  0  0  0  0  0  0  0  0  0
    0.2897    3.5072    0.0000 C   0  0  0  0  0  0  0  0  0  0  0  0
    0.2960    4.3287    0.0000 C   0  0  0  0  0  0  0  0  0  0  0  0
   -0.4198    4.7396    0.0000 C   0  0  0  0  0  0  0  0  0  0  0  0
   -1.1255    4.3336    0.0000 C   0  0  0  0  0  0  0  0  0  0  0  0
   -0.4213    5.5643    0.0000 O   0  0  0  0  0  0  0  0  0  0  0  0
    0.2947    5.9780    0.0000 C   0  0  0  0  0  0  0  0  0  0  0  0
   -2.5594    1.8642    0.0000 C   0  0  0  0  0  0  0  0  0  0  0  0
   -3.2731    2.2802    0.0000 C   0  0  0  0  0  0  0  0  0  0  0  0
   -3.9868    1.8647    0.0000 C   0  0  0  0  0  0  0  0  0  0  0  0
   -3.9875    1.0428    0.0000 C   0  0  0  0  0  0  0  0  0  0  0  0
   -3.2694    0.6306    0.0000 C   0  0  0  0  0  0  0  0  0  0  0  0
   -2.5560    1.0414    0.0000 C   0  0  0  0  0  0  0  0  0  0  0  0
    0.2868    1.0311    0.0000 C   0  0  0  0  0  0  0  0  0  0  0  0
   -0.4339    0.6273    0.0000 C   0  0  0  0  0  0  0  0  0  0  0  0
   -0.4364   -0.1963    0.0000 C   0  0  0  0  0  0  0  0  0  0  0  0
    0.2758   -0.6111    0.0000 C   0  0  0  0  0  0  0  0  0  0  0  0
    0.9929   -0.1973    0.0000 C   0  0  0  0  0  0  0  0  0  0  0  0
    0.9942    0.6242    0.0000 C   0  0  0  0  0  0  0  0  0  0  0  0
    0.2713   -1.4359    0.0000 C   0  0  0  0  0  0  0  0  0  0  0  0
   -1.1594   -1.4347    0.0000 C   0  0  0  0  0  0  0  0  0  0  0  0
   -1.8719   -1.8431    0.0000 C   0  0  0  0  0  0  0  0  0  0  0  0
   -1.1549   -0.6099    0.0000 O   0  0  0  0  0  0  0  0  0  0  0  0
   -1.8765   -2.6679    0.0000 C   0  0  0  0  0  0  0  0  0  0  0  0
   -2.5933   -3.0806    0.0000 C   0  0  0  0  0  0  0  0  0  0  0  0
   -1.1642   -3.0842    0.0000 C   0  0  0  0  0  0  0  0  0  0  0  0
   -1.8830   -3.4942    0.0000 C   0  0  0  0  0  0  0  0  0  0  0  0
    0.9836   -1.8522    0.0000 C   0  0  0  0  0  0  0  0  0  0  0  0
    1.7004   -1.4395    0.0000 O   0  0  0  0  0  0  0  0  0  0  0  0
    1.6956   -3.0932    0.0000 C   0  0  0  0  0  0  0  0  0  0  0  0
    1.6911   -3.9180    0.0000 C   0  0  0  0  0  0  0  0  0  0  0  0
    2.4123   -2.6805    0.0000 C   0  0  0  0  0  0  0  0  0  0  0  0
    2.4075   -4.3343    0.0000 C   0  0  0  0  0  0  0  0  0  0  0  0
    2.4030   -5.1590    0.0000 C   0  0  0  0  0  0  0  0  0  0  0  0
    3.1247   -3.0968    0.0000 O   0  0  0  0  0  0  0  0  0  0  0  0
    1.4716    1.2930    0.0000 C   0  0  0  0  0  0  0  0  0  0  0  0
    2.3044    1.2960    0.0000 C   0  0  0  0  0  0  0  0  0  0  0  0
    2.7236    0.5759    0.0000 C   0  0  0  0  0  0  0  0  0  0  0  0
    3.5567    0.5789    0.0000 C   0  0  0  0  0  0  0  0  0  0  0  0
    3.9710   -0.1434    0.0000 C   0  0  0  0  0  0  0  0  0  0  0  0
   -3.3006   -1.8468    0.0000 C   0  0  0  0  0  0  0  0  0  0  0  0
   -3.2970   -2.6788    0.0000 O   0  0  0  0  0  0  0  0  0  0  0  0
   -4.0267   -1.4311    0.0000 O   0  0  0  0  0  0  0  0  0  0  0  0
   -4.7528   -1.8476    0.0000 C   0  0  0  0  0  0  0  0  0  0  0  0
   -5.4742   -1.4311    0.0000 C   0  0  0  0  0  0  0  0  0  0  0  0
   -4.7528   -2.6761    0.0000 C   0  0  0  0  0  0  0  0  0  0  0  0
   -5.4685   -2.2724    0.0000 C   0  0  0  0  0  0  0  0  0  0  0  0
    2.9728   -1.9912    0.0000 N   0  0  0  0  0  0  0  0  0  0  0  0
   -2.5873   -1.4322    0.0000 N   0  0  0  0  0  0  0  0  0  0  0  0
   -0.4444   -1.8463    0.0000 N   0  0  0  0  0  0  0  0  0  0  0  0
    0.9831   -2.6772    0.0000 N   0  0  0  0  0  0  0  0  0  0  0  0
  2  1  2  0
  3  2  2  0
  4  5  1  0
  5 10  2  0
  9  6  2  0
  6  7  1  0
  7  8  2  0
  8  5  1  0
  9 10  1  0
 10 11  1  0
 11 12  2  0
 12 13  1  0
 13 14  2  0
 14  9  1  0
 13 15  1  0
 15 16  1  0
  7 17  1  0
 17 18  2  0
 18 19  1  0
 19 20  2  0
 20 21  1  0
 21 22  2  0
 22 17  1  0
  4 23  1  0
 23 24  2  0
 24 25  1  0
 25 26  2  0
 26 27  1  0
 27 28  2  0
 28 23  1  0
 29 26  1  0
 30 31  1  0
 30 32  2  0
 31 33  1  6
 33 34  1  0
 33 35  1  0
 33 36  1  0
 29 37  1  0
 37 38  2  0
 39 40  1  6
 39 41  1  0
 40 42  1  0
 42 43  1  0
 41 44  2  0
 28 45  1  0
 45 46  1  0
 46 47  2  0
 47 48  1  0
 48 49  1  0
  2 49  1  0
 50 51  2  0
 50 52  1  0
 52 53  1  0
 53 54  1  0
 53 55  1  0
 53 56  1  0
 41 57  1  0
  2 57  1  0
 31 58  1  0
 50 58  1  0
 29 59  1  1
 30 59  1  0
 37 60  1  0
 39 60  1  0
M  END
> <chembl_id>
CHEMBL1813737

> <chembl_pref_name>
None

$$$$
CHEMBL4076613
     RDKit          2D

 33 35  0  0  0  0  0  0  0  0999 V2000
   19.5631  -20.4091    0.0000 O   0  0  0  0  0  0  0  0  0  0  0  0
   19.9758  -21.1190    0.0000 S   0  0  0  0  0  0  0  0  0  0  0  0
   20.3842  -20.4067    0.0000 O   0  0  0  0  0  0  0  0  0  0  0  0
   28.8658  -23.4550    0.0000 O   0  0  0  0  0  0  0  0  0  0  0  0
   28.4614  -22.7493    0.0000 S   0  0  0  0  0  0  0  0  0  0  0  0
   28.0524  -23.4524    0.0000 O   0  0  0  0  0  0  0  0  0  0  0  0
   23.5169  -21.5194    0.0000 N   0  0  0  0  0  0  0  0  0  0  0  0
   23.5169  -22.3366    0.0000 C   0  0  0  0  0  0  0  0  0  0  0  0
   24.2222  -22.7410    0.0000 C   0  0  0  0  0  0  0  0  0  0  0  0
   24.9275  -22.3366    0.0000 N   0  0  0  0  0  0  0  0  0  0  0  0
   24.9275  -21.5194    0.0000 C   0  0  0  0  0  0  0  0  0  0  0  0
   24.2222  -21.1066    0.0000 C   0  0  0  0  0  0  0  0  0  0  0  0
   25.6346  -22.7462    0.0000 C   0  0  0  0  0  0  0  0  0  0  0  0
   26.3429  -22.3386    0.0000 C   0  0  0  0  0  0  0  0  0  0  0  0
   27.0500  -22.7482    0.0000 C   0  0  0  0  0  0  0  0  0  0  0  0
   27.7583  -22.3407    0.0000 N   0  0  0  0  0  0  0  0  0  0  0  0
   29.1738  -22.3427    0.0000 C   0  0  0  0  0  0  0  0  0  0  0  0
   22.8080  -21.1129    0.0000 C   0  0  0  0  0  0  0  0  0  0  0  0
   22.1015  -21.5235    0.0000 C   0  0  0  0  0  0  0  0  0  0  0  0
   21.3926  -21.1170    0.0000 C   0  0  0  0  0  0  0  0  0  0  0  0
   20.6861  -21.5277    0.0000 N   0  0  0  0  0  0  0  0  0  0  0  0
   19.2707  -21.5318    0.0000 C   0  0  0  0  0  0  0  0  0  0  0  0
   18.5626  -21.1218    0.0000 C   0  0  0  0  0  0  0  0  0  0  0  0
   17.8566  -21.5318    0.0000 C   0  0  0  0  0  0  0  0  0  0  0  0
   17.8586  -22.3499    0.0000 C   0  0  0  0  0  0  0  0  0  0  0  0
   18.5725  -22.7562    0.0000 C   0  0  0  0  0  0  0  0  0  0  0  0
   19.2756  -22.3439    0.0000 C   0  0  0  0  0  0  0  0  0  0  0  0
   29.8774  -22.7564    0.0000 C   0  0  0  0  0  0  0  0  0  0  0  0
   30.5852  -22.3495    0.0000 C   0  0  0  0  0  0  0  0  0  0  0  0
   30.5868  -21.5315    0.0000 C   0  0  0  0  0  0  0  0  0  0  0  0
   29.8748  -21.1220    0.0000 C   0  0  0  0  0  0  0  0  0  0  0  0
   29.1698  -21.5312    0.0000 C   0  0  0  0  0  0  0  0  0  0  0  0
   17.1526  -22.7615    0.0000 C   0  0  0  0  0  0  0  0  0  0  0  0
  2  1  2  0
  3  2  2  0
  5  4  2  0
  6  5  2  0
  7  8  1  0
  7 12  1  0
  8  9  1  0
  9 10  1  0
 10 11  1  0
 11 12  1  0
 10 13  1  0
 13 14  1  0
 14 15  1  0
 15 16  1  0
 16  5  1  0
  5 17  1  0
  7 18  1  0
 18 19  1  0
 19 20  1  0
 20 21  1  0
 21  2  1  0
  2 22  1  0
 22 23  2  0
 23 24  1  0
 24 25  2  0
 25 26  1  0
 26 27  2  0
 27 22  1  0
 17 28  2  0
 28 29  1  0
 29 30  2  0
 30 31  1  0
 31 32  2  0
 32 17  1  0
 25 33  1  0
M  END
> <chembl_id>
CHEMBL4076613

> <chembl_pref_name>
None

$$$$
CHEMBL3120363
     RDKit          2D

 23 25  0  0  0  0  0  0  0  0999 V2000
    9.4664  -10.1323    0.0000 C   0  0  0  0  0  0  0  0  0  0  0  0
    9.4653  -10.9477    0.0000 C   0  0  0  0  0  0  0  0  0  0  0  0
   10.1775  -11.3567    0.0000 C   0  0  0  0  0  0  0  0  0  0  0  0
   10.1757   -9.7234    0.0000 C   0  0  0  0  0  0  0  0  0  0  0  0
   10.8802  -10.1287    0.0000 C   0  0  0  0  0  0  0  0  0  0  0  0
   10.8804  -10.9478    0.0000 C   0  0  0  0  0  0  0  0  0  0  0  0
   11.6593  -11.1978    0.0000 N   0  0  0  0  0  0  0  0  0  0  0  0
   12.1347  -10.5440    0.0000 C   0  0  0  0  0  0  0  0  0  0  0  0
   11.6589   -9.8783    0.0000 C   0  0  0  0  0  0  0  0  0  0  0  0
   11.9111   -9.0969    0.0000 C   0  0  0  0  0  0  0  0  0  0  0  0
   12.7063   -8.9267    0.0000 C   0  0  0  0  0  0  0  0  0  0  0  0
   12.9586   -8.1494    0.0000 O   0  0  0  0  0  0  0  0  0  0  0  0
   13.2533   -9.5338    0.0000 O   0  0  0  0  0  0  0  0  0  0  0  0
   11.9079  -11.9791    0.0000 C   0  0  0  0  0  0  0  0  0  0  0  0
   12.7067  -12.1531    0.0000 C   0  0  0  0  0  0  0  0  0  0  0  0
   12.9575  -12.9272    0.0000 C   0  0  0  0  0  0  0  0  0  0  0  0
   13.7524  -13.1005    0.0000 C   0  0  0  0  0  0  0  0  0  0  0  0
   14.3022  -12.5001    0.0000 C   0  0  0  0  0  0  0  0  0  0  0  0
   14.0497  -11.7188    0.0000 C   0  0  0  0  0  0  0  0  0  0  0  0
   13.2553  -11.5442    0.0000 C   0  0  0  0  0  0  0  0  0  0  0  0
   14.6022  -11.1116    0.0000 N   0  0  0  0  0  0  0  0  0  0  0  0
   14.3530  -10.3334    0.0000 O   0  0  0  0  0  0  0  0  0  0  0  0
   15.4008  -11.2849    0.0000 O   0  0  0  0  0  0  0  0  0  0  0  0
  1  2  2  0
  2  3  1  0
  3  6  2  0
  5  4  2  0
  4  1  1  0
  5  6  1  0
  6  7  1  0
  7  8  1  0
  8  9  2  0
  9  5  1  0
  9 10  1  0
 10 11  1  0
 11 12  2  0
 11 13  1  0
  7 14  1  0
 14 15  1  0
 15 16  2  0
 16 17  1  0
 17 18  2  0
 18 19  1  0
 19 20  2  0
 20 15  1  0
 21 22  2  0
 21 23  1  0
 19 21  1  0
M  CHG  2  21   1  23  -1
M  END
> <chembl_id>
CHEMBL3120363

> <chembl_pref_name>
None

$$$$
CHEMBL4066868
     RDKit          2D

 42 45  0  0  0  0  0  0  0  0999 V2000
   19.3484  -14.8993    0.0000 O   0  0  0  0  0  0  0  0  0  0  0  0
   19.7612  -15.6092    0.0000 S   0  0  0  0  0  0  0  0  0  0  0  0
   20.1696  -14.8968    0.0000 O   0  0  0  0  0  0  0  0  0  0  0  0
   28.6512  -17.9452    0.0000 O   0  0  0  0  0  0  0  0  0  0  0  0
   28.2468  -17.2394    0.0000 S   0  0  0  0  0  0  0  0  0  0  0  0
   27.8378  -17.9426    0.0000 O   0  0  0  0  0  0  0  0  0  0  0  0
   23.3023  -16.0095    0.0000 N   0  0  0  0  0  0  0  0  0  0  0  0
   23.3023  -16.8267    0.0000 C   0  0  0  0  0  0  0  0  0  0  0  0
   24.0076  -17.2312    0.0000 C   0  0  0  0  0  0  0  0  0  0  0  0
   24.7129  -16.8267    0.0000 N   0  0  0  0  0  0  0  0  0  0  0  0
   24.7129  -16.0095    0.0000 C   0  0  0  0  0  0  0  0  0  0  0  0
   24.0076  -15.5968    0.0000 C   0  0  0  0  0  0  0  0  0  0  0  0
   25.4200  -17.2363    0.0000 C   0  0  0  0  0  0  0  0  0  0  0  0
   26.1283  -16.8288    0.0000 C   0  0  0  0  0  0  0  0  0  0  0  0
   26.8354  -17.2384    0.0000 C   0  0  0  0  0  0  0  0  0  0  0  0
   27.5437  -16.8308    0.0000 N   0  0  0  0  0  0  0  0  0  0  0  0
   28.9591  -16.8329    0.0000 C   0  0  0  0  0  0  0  0  0  0  0  0
   22.5934  -15.6030    0.0000 C   0  0  0  0  0  0  0  0  0  0  0  0
   21.8869  -16.0137    0.0000 C   0  0  0  0  0  0  0  0  0  0  0  0
   21.1780  -15.6071    0.0000 C   0  0  0  0  0  0  0  0  0  0  0  0
   20.4715  -16.0178    0.0000 N   0  0  0  0  0  0  0  0  0  0  0  0
   19.0561  -16.0220    0.0000 C   0  0  0  0  0  0  0  0  0  0  0  0
   18.3480  -15.6120    0.0000 C   0  0  0  0  0  0  0  0  0  0  0  0
   17.6420  -16.0219    0.0000 C   0  0  0  0  0  0  0  0  0  0  0  0
   17.6440  -16.8400    0.0000 C   0  0  0  0  0  0  0  0  0  0  0  0
   18.3578  -17.2463    0.0000 C   0  0  0  0  0  0  0  0  0  0  0  0
   19.0609  -16.8340    0.0000 C   0  0  0  0  0  0  0  0  0  0  0  0
   29.6628  -17.2466    0.0000 C   0  0  0  0  0  0  0  0  0  0  0  0
   30.3706  -16.8397    0.0000 C   0  0  0  0  0  0  0  0  0  0  0  0
   30.3722  -16.0216    0.0000 C   0  0  0  0  0  0  0  0  0  0  0  0
   29.6601  -15.6121    0.0000 C   0  0  0  0  0  0  0  0  0  0  0  0
   28.9552  -16.0214    0.0000 C   0  0  0  0  0  0  0  0  0  0  0  0
   16.9380  -17.2516    0.0000 C   0  0  0  0  0  0  0  0  0  0  0  0
   16.2286  -16.8460    0.0000 C   0  0  0  0  0  0  0  0  0  0  0  0
   16.9415  -18.0688    0.0000 C   0  0  0  0  0  0  0  0  0  0  0  0
   16.2241  -17.6522    0.0000 C   0  0  0  0  0  0  0  0  0  0  0  0
   31.0749  -15.6140    0.0000 C   0  0  0  0  0  0  0  0  0  0  0  0
   31.7828  -16.0244    0.0000 C   0  0  0  0  0  0  0  0  0  0  0  0
   32.4901  -15.6166    0.0000 C   0  0  0  0  0  0  0  0  0  0  0  0
   32.4906  -14.7985    0.0000 C   0  0  0  0  0  0  0  0  0  0  0  0
   31.7780  -14.3900    0.0000 C   0  0  0  0  0  0  0  0  0  0  0  0
   31.0737  -14.8002    0.0000 C   0  0  0  0  0  0  0  0  0  0  0  0
  2  1  2  0
  3  2  2  0
  5  4  2  0
  6  5  2  0
  7  8  1  0
  7 12  1  0
  8  9  1  0
  9 10  1  0
 10 11  1  0
 11 12  1  0
 10 13  1  0
 13 14  1  0
 14 15  1  0
 15 16  1  0
 16  5  1  0
  5 17  1  0
  7 18  1  0
 18 19  1  0
 19 20  1  0
 20 21  1  0
 21  2  1  0
  2 22  1  0
 22 23  2  0
 23 24  1  0
 24 25  2  0
 25 26  1  0
 26 27  2  0
 27 22  1  0
 17 28  2  0
 28 29  1  0
 29 30  2  0
 30 31  1  0
 31 32  2  0
 32 17  1  0
 25 33  1  0
 33 34  1  0
 33 35  1  0
 33 36  1  0
 37 38  2  0
 38 39  1  0
 39 40  2  0
 40 41  1  0
 41 42  2  0
 42 37  1  0
 30 37  1  0
M  END
> <chembl_id>
CHEMBL4066868

> <chembl_pref_name>
None

$$$$
CHEMBL2368690
     RDKit          2D

 48 48  0  0  0  0  0  0  0  0999 V2000
    0.1768   -6.5459    0.0000 N   0  0  0  0  0  0  0  0  0  0  0  0
    1.0018   -6.5459    0.0000 C   0  0  0  0  0  0  0  0  0  0  0  0
   -0.2357   -5.8314    0.0000 C   0  0  0  0  0  0  0  0  0  0  0  0
   -0.2357   -7.2604    0.0000 C   0  0  0  0  0  0  0  0  0  0  0  0
    1.4143   -7.2604    0.0000 C   0  0  0  0  0  0  0  0  0  0  0  0
   -1.0607   -5.8314    0.0000 C   0  0  0  0  0  0  0  0  0  0  0  0
   -1.0607   -7.2604    0.0000 C   0  0  0  0  0  0  0  0  0  0  0  0
    0.7968   -2.1257    0.0000 N   0  0  0  0  0  0  0  0  0  0  0  0
    1.5814   -2.3806    0.0000 C   0  0  0  0  0  0  0  0  0  0  0  0
    1.5814   -3.2056    0.0000 C   0  0  0  0  0  0  0  0  0  0  0  0
    0.5418   -1.3411    0.0000 C   0  0  0  0  0  0  0  0  0  0  0  0
   -2.0726    2.8346    0.0000 P   0  0  0  0  0  0  0  0  0  0  0  0
    2.2264   -3.7200    0.0000 N   0  0  0  0  0  0  0  0  0  0  0  0
    0.7968   -3.4606    0.0000 N   0  0  0  0  0  0  0  0  0  0  0  0
    1.0268   -0.6736    0.0000 C   0  0  0  0  0  0  0  0  0  0  0  0
    0.3118   -2.7931    0.0000 C   0  0  0  0  0  0  0  0  0  0  0  0
   -0.2428   -1.0861    0.0000 O   0  0  0  0  0  0  0  0  0  0  0  0
   -1.9864    3.6551    0.0000 O   0  0  0  0  0  0  0  0  0  0  0  0
   -2.1589    2.0141    0.0000 O   0  0  0  0  0  0  0  0  0  0  0  0
    2.2264   -1.8662    0.0000 C   0  0  0  0  0  0  0  0  0  0  0  0
   -2.6538    4.1400    0.0000 P   0  0  0  0  0  0  0  0  0  0  0  0
   -1.4914    1.5292    0.0000 P   0  0  0  0  0  0  0  0  0  0  0  0
    3.0307   -3.5364    0.0000 C   0  0  0  0  0  0  0  0  0  0  0  0
   -0.2428   -0.2611    0.0000 C   0  0  0  0  0  0  0  0  0  0  0  0
    0.5418   -0.0062    0.0000 C   0  0  0  0  0  0  0  0  0  0  0  0
    3.0307   -2.0498    0.0000 N   0  0  0  0  0  0  0  0  0  0  0  0
    3.3887   -2.7931    0.0000 N   0  0  0  0  0  0  0  0  0  0  0  0
   -2.8931    2.9208    0.0000 O   0  0  0  0  0  0  0  0  0  0  0  0
   -0.9102    0.2238    0.0000 C   0  0  0  0  0  0  0  0  0  0  0  0
   -1.2522    2.7484    0.0000 O   0  0  0  0  0  0  0  0  0  0  0  0
   -0.8240    1.0443    0.0000 O   0  0  0  0  0  0  0  0  0  0  0  0
   -3.3213    4.6249    0.0000 O   0  0  0  0  0  0  0  0  0  0  0  0
   -3.1388    3.4726    0.0000 O   0  0  0  0  0  0  0  0  0  0  0  0
   -1.9764    0.8618    0.0000 O   0  0  0  0  0  0  0  0  0  0  0  0
    2.0428   -1.0619    0.0000 O   0  0  0  0  0  0  0  0  0  0  0  0
    3.5451   -4.1814    0.0000 O   0  0  0  0  0  0  0  0  0  0  0  0
    1.8518   -0.6736    0.0000 O   0  0  0  0  0  0  0  0  0  0  0  0
   -2.1689    4.8074    0.0000 O   0  0  0  0  0  0  0  0  0  0  0  0
   -1.0065    2.1966    0.0000 O   0  0  0  0  0  0  0  0  0  0  0  0
    0.7968    0.7784    0.0000 O   0  0  0  0  0  0  0  0  0  0  0  0
   -0.9779   -0.6357    0.0000 H   0  0  0  0  0  0  0  0  0  0  0  0
    7.0219    0.1021    0.0000 N   0  0  0  0  0  0  0  0  0  0  0  0
    7.8469    0.1021    0.0000 C   0  0  0  0  0  0  0  0  0  0  0  0
    6.6094    0.8165    0.0000 C   0  0  0  0  0  0  0  0  0  0  0  0
    6.6094   -0.6124    0.0000 C   0  0  0  0  0  0  0  0  0  0  0  0
    8.2594   -0.6124    0.0000 C   0  0  0  0  0  0  0  0  0  0  0  0
    5.7844    0.8165    0.0000 C   0  0  0  0  0  0  0  0  0  0  0  0
    5.7844   -0.6124    0.0000 C   0  0  0  0  0  0  0  0  0  0  0  0
  2  1  1  0
  3  1  1  0
  4  1  1  0
  5  2  1  0
  6  3  1  0
  7  4  1  0
  9  8  1  0
 10  9  2  0
 11  8  1  1
 12 19  1  0
 13 10  1  0
 14 16  2  0
 15 11  1  0
 16  8  1  0
 17 11  1  0
 18 12  1  0
 19 22  1  0
 20  9  1  0
 21 18  1  0
 22 31  1  0
 23 13  1  0
 24 17  1  0
 25 15  1  0
 26 20  1  0
 27 26  1  0
 28 12  1  0
 24 29  1  1
 30 12  2  0
 31 29  1  0
 32 21  1  0
 33 21  2  0
 34 22  2  0
 35 20  2  0
 36 23  2  0
 15 37  1  6
 38 21  1  0
 39 22  1  0
 25 40  1  6
 24 41  1  6
 10 14  1  0
 25 24  1  0
 23 27  1  0
 43 42  1  0
 44 42  1  0
 45 42  1  0
 46 43  1  0
 47 44  1  0
 48 45  1  0
M  END
> <chembl_id>
CHEMBL2368690

> <chembl_pref_name>
None

$$$$
CHEMBL4470227
     RDKit          2D

 18 21  0  0  0  0  0  0  0  0999 V2000
    4.7244  -17.8153    0.0000 S   0  0  0  0  0  0  0  0  0  0  0  0
    5.2233  -17.1679    0.0000 C   0  0  0  0  0  0  0  0  0  0  0  0
    4.7591  -16.4923    0.0000 N   0  0  0  0  0  0  0  0  0  0  0  0
    3.9540  -17.5428    0.0000 C   0  0  0  0  0  0  0  0  0  0  0  0
    3.9772  -16.7281    0.0000 C   0  0  0  0  0  0  0  0  0  0  0  0
    3.2844  -16.3025    0.0000 C   0  0  0  0  0  0  0  0  0  0  0  0
    2.5680  -16.6904    0.0000 C   0  0  0  0  0  0  0  0  0  0  0  0
    2.5486  -17.5083    0.0000 N   0  0  0  0  0  0  0  0  0  0  0  0
    3.2421  -17.9302    0.0000 C   0  0  0  0  0  0  0  0  0  0  0  0
    6.0370  -17.1915    0.0000 C   0  0  0  0  0  0  0  0  0  0  0  0
    6.4255  -17.9117    0.0000 C   0  0  0  0  0  0  0  0  0  0  0  0
    7.2416  -17.9343    0.0000 C   0  0  0  0  0  0  0  0  0  0  0  0
    7.6702  -17.2375    0.0000 C   0  0  0  0  0  0  0  0  0  0  0  0
    6.4618  -16.4974    0.0000 C   0  0  0  0  0  0  0  0  0  0  0  0
    7.2763  -16.5127    0.0000 C   0  0  0  0  0  0  0  0  0  0  0  0
    7.5426  -15.7429    0.0000 C   0  0  0  0  0  0  0  0  0  0  0  0
    6.8927  -15.2517    0.0000 C   0  0  0  0  0  0  0  0  0  0  0  0
    6.2248  -15.7180    0.0000 O   0  0  0  0  0  0  0  0  0  0  0  0
  4  1  1  0
  1  2  1  0
  2  3  2  0
  3  5  1  0
  4  5  2  0
  5  6  1  0
  6  7  2  0
  7  8  1  0
  8  9  2  0
  9  4  1  0
 10 11  2  0
 11 12  1  0
 12 13  2  0
 13 15  1  0
 14 10  1  0
  2 10  1  0
 14 15  2  0
 15 16  1  0
 16 17  1  0
 17 18  1  0
 18 14  1  0
M  END
> <chembl_id>
CHEMBL4470227

> <chembl_pref_name>
None

$$$$
CHEMBL422
     RDKit          2D

 28 31  0  0  0  0  0  0  0  0999 V2000
    2.1875   -1.3500    0.0000 N   0  0  0  0  0  0  0  0  0  0  0  0
    1.5667   -1.0042    0.0000 C   0  0  0  0  0  0  0  0  0  0  0  0
    2.1792    0.0708    0.0000 S   0  0  0  0  0  0  0  0  0  0  0  0
   -0.2625   -1.3792    0.0000 C   0  0  0  0  0  0  0  0  0  0  0  0
    1.5667   -0.2917    0.0000 C   0  0  0  0  0  0  0  0  0  0  0  0
    2.8042   -0.9917    0.0000 C   0  0  0  0  0  0  0  0  0  0  0  0
    2.8000   -0.2792    0.0000 C   0  0  0  0  0  0  0  0  0  0  0  0
    0.9667   -1.3667    0.0000 C   0  0  0  0  0  0  0  0  0  0  0  0
    0.3417   -1.0250    0.0000 C   0  0  0  0  0  0  0  0  0  0  0  0
    0.9875   -3.4875    0.0000 N   0  0  0  0  0  0  0  0  0  0  0  0
   -0.2375   -4.2042    0.0000 N   0  0  0  0  0  0  0  0  0  0  0  0
    0.9542    0.0500    0.0000 C   0  0  0  0  0  0  0  0  0  0  0  0
    0.3417   -0.3125    0.0000 C   0  0  0  0  0  0  0  0  0  0  0  0
   -0.8833   -1.0292    0.0000 F   0  0  0  0  0  0  0  0  0  0  0  0
    0.0792   -1.9917    0.0000 F   0  0  0  0  0  0  0  0  0  0  0  0
   -0.6208   -1.9917    0.0000 F   0  0  0  0  0  0  0  0  0  0  0  0
    2.1958   -2.0625    0.0000 C   0  0  0  0  0  0  0  0  0  0  0  0
    0.3792   -4.5625    0.0000 C   0  0  0  0  0  0  0  0  0  0  0  0
   -0.2458   -3.5000    0.0000 C   0  0  0  0  0  0  0  0  0  0  0  0
    0.9917   -4.1958    0.0000 C   0  0  0  0  0  0  0  0  0  0  0  0
    0.3667   -3.1375    0.0000 C   0  0  0  0  0  0  0  0  0  0  0  0
    1.5917   -2.4167    0.0000 C   0  0  0  0  0  0  0  0  0  0  0  0
    1.6000   -3.1250    0.0000 C   0  0  0  0  0  0  0  0  0  0  0  0
    3.4167   -1.3375    0.0000 C   0  0  0  0  0  0  0  0  0  0  0  0
    3.4125    0.0833    0.0000 C   0  0  0  0  0  0  0  0  0  0  0  0
   -0.8500   -4.5750    0.0000 C   0  0  0  0  0  0  0  0  0  0  0  0
    4.0375   -0.9750    0.0000 C   0  0  0  0  0  0  0  0  0  0  0  0
    4.0292   -0.2667    0.0000 C   0  0  0  0  0  0  0  0  0  0  0  0
  2  1  1  0
  3  7  1  0
  4  9  1  0
  5  2  1  0
  6  1  1  0
  7  6  2  0
  8  2  2  0
  9  8  1  0
 10 23  1  0
 11 19  1  0
 12  5  2  0
 13  9  2  0
 14  4  1  0
 15  4  1  0
 16  4  1  0
 17  1  1  0
 18 20  1  0
 19 21  1  0
 20 10  1  0
 21 10  1  0
 22 17  1  0
 23 22  1  0
 24  6  1  0
 25  7  1  0
 26 11  1  0
 27 24  2  0
 28 27  1  0
  5  3  1  0
 25 28  2  0
 12 13  1  0
 18 11  1  0
M  END
> <chembl_id>
CHEMBL422

> <chembl_pref_name>
TRIFLUOPERAZINE

$$$$
CHEMBL269277
     RDKit          2D

 37 41  0  0  0  0  0  0  0  0999 V2000
   23.8300  -16.3835    0.0000 C   0  0  0  0  0  0  0  0  0  0  0  0
   23.1136  -16.7875    0.0000 C   0  0  0  0  0  0  0  0  0  0  0  0
   21.6893  -16.7833    0.0000 C   0  0  0  0  0  0  0  0  0  0  0  0
   25.2626  -15.5839    0.0000 C   0  0  0  0  0  0  0  0  0  0  0  0
   24.5546  -15.1591    0.0000 C   0  0  0  0  0  0  0  0  0  0  0  0
   23.8425  -15.5631    0.0000 C   0  0  0  0  0  0  0  0  0  0  0  0
   22.4015  -16.3710    0.0000 C   0  0  0  0  0  0  0  0  0  0  0  0
   21.6810  -17.6079    0.0000 C   0  0  0  0  0  0  0  0  0  0  0  0
   20.9772  -18.0202    0.0000 C   0  0  0  0  0  0  0  0  0  0  0  0
   24.7420  -14.3554    0.0000 C   0  0  0  0  0  0  0  0  0  0  0  0
   25.9747  -15.9879    0.0000 C   0  0  0  0  0  0  0  0  0  0  0  0
   24.5296  -16.8083    0.0000 C   0  0  0  0  0  0  0  0  0  0  0  0
   23.1136  -17.6121    0.0000 C   0  0  0  0  0  0  0  0  0  0  0  0
   25.2501  -16.4044    0.0000 C   0  0  0  0  0  0  0  0  0  0  0  0
   25.8790  -15.0384    0.0000 C   0  0  0  0  0  0  0  0  0  0  0  0
   23.1303  -15.1383    0.0000 C   0  0  0  0  0  0  0  0  0  0  0  0
   20.9772  -16.3627    0.0000 C   0  0  0  0  0  0  0  0  0  0  0  0
   22.4057  -15.5464    0.0000 C   0  0  0  0  0  0  0  0  0  0  0  0
   22.3932  -18.0244    0.0000 C   0  0  0  0  0  0  0  0  0  0  0  0
   25.5624  -14.2846    0.0000 C   0  0  0  0  0  0  0  0  0  0  0  0
   24.2006  -13.7307    0.0000 C   0  0  0  0  0  0  0  0  0  0  0  0
   20.2567  -17.6079    0.0000 C   0  0  0  0  0  0  0  0  0  0  0  0
   26.6911  -15.5756    0.0000 O   0  0  0  0  0  0  0  0  0  0  0  0
   20.2567  -16.7833    0.0000 C   0  0  0  0  0  0  0  0  0  0  0  0
   24.4672  -12.9519    0.0000 C   0  0  0  0  0  0  0  0  0  0  0  0
   23.8175  -17.2081    0.0000 C   0  0  0  0  0  0  0  0  0  0  0  0
   25.9789  -16.8125    0.0000 O   0  0  0  0  0  0  0  0  0  0  0  0
   23.1053  -15.9629    0.0000 C   0  0  0  0  0  0  0  0  0  0  0  0
   21.6810  -15.9504    0.0000 C   0  0  0  0  0  0  0  0  0  0  0  0
   20.5483  -18.7324    0.0000 C   0  0  0  0  0  0  0  0  0  0  0  0
   21.3812  -18.7324    0.0000 C   0  0  0  0  0  0  0  0  0  0  0  0
   19.5446  -18.0244    0.0000 O   0  0  0  0  0  0  0  0  0  0  0  0
   23.3885  -13.8973    0.0000 C   0  0  0  0  0  0  0  0  0  0  0  0
   21.6768  -18.4325    0.0000 H   0  0  0  0  0  0  0  0  0  0  0  0
   24.5504  -15.9837    0.0000 H   0  0  0  0  0  0  0  0  0  0  0  0
   22.3932  -17.1956    0.0000 H   0  0  0  0  0  0  0  0  0  0  0  0
   23.8383  -14.7261    0.0000 H   0  0  0  0  0  0  0  0  0  0  0  0
  9  8  1  0
 10  5  1  0
  4 11  1  1
 12  1  1  0
 13  2  1  0
 14 12  1  0
 15  4  1  0
 16  6  1  0
 17  3  1  0
 18 16  1  0
 19 13  1  0
 20 10  1  0
 10 21  1  6
 22  9  1  0
 23 11  2  0
 24 17  1  0
 25 21  2  0
  1 26  1  6
 27 11  1  0
  2 28  1  1
  3 29  1  1
 30  9  1  0
 31  9  1  0
 22 32  1  1
 33 21  1  0
  8 34  1  6
  5 35  1  6
  7 36  1  6
  6 37  1  1
  5  4  1  0
  7 18  1  0
 15 20  1  0
  3  8  1  0
 24 22  1  0
  2  1  1  0
  3  7  1  0
  4 14  1  0
  5  6  1  0
  6  1  1  0
  7  2  1  0
  8 19  1  0
M  END
> <chembl_id>
CHEMBL269277

> <chembl_pref_name>
BETULINIC ACID

$$$$
CHEMBL4548906
     RDKit          2D

 17 19  0  0  0  0  0  0  0  0999 V2000
    4.2289   -7.9153    0.0000 N   0  0  0  0  0  0  0  0  0  0  0  0
    3.5659   -7.4331    0.0000 N   0  0  0  0  0  0  0  0  0  0  0  0
    2.9072   -7.9153    0.0000 C   0  0  0  0  0  0  0  0  0  0  0  0
    3.9745   -8.6920    0.0000 C   0  0  0  0  0  0  0  0  0  0  0  0
    3.1573   -8.6920    0.0000 N   0  0  0  0  0  0  0  0  0  0  0  0
    2.9047   -9.4692    0.0000 N   0  0  0  0  0  0  0  0  0  0  0  0
    3.5659   -9.9496    0.0000 C   0  0  0  0  0  0  0  0  0  0  0  0
    4.2269   -9.4692    0.0000 S   0  0  0  0  0  0  0  0  0  0  0  0
    3.5659  -10.7668    0.0000 C   0  0  0  0  0  0  0  0  0  0  0  0
    2.8585  -11.1721    0.0000 C   0  0  0  0  0  0  0  0  0  0  0  0
    2.8582  -11.9885    0.0000 C   0  0  0  0  0  0  0  0  0  0  0  0
    3.5664  -12.3979    0.0000 C   0  0  0  0  0  0  0  0  0  0  0  0
    4.2765  -11.9849    0.0000 C   0  0  0  0  0  0  0  0  0  0  0  0
    4.2733  -11.1698    0.0000 C   0  0  0  0  0  0  0  0  0  0  0  0
    4.9790  -10.7578    0.0000 O   0  0  0  0  0  0  0  0  0  0  0  0
    5.6887  -11.1630    0.0000 C   0  0  0  0  0  0  0  0  0  0  0  0
    6.3944  -10.7510    0.0000 C   0  0  0  0  0  0  0  0  0  0  0  0
  4  1  2  0
  1  2  1  0
  2  3  2  0
  3  5  1  0
  4  5  1  0
  5  6  1  0
  6  7  2  0
  7  8  1  0
  8  4  1  0
  7  9  1  0
  9 10  2  0
 10 11  1  0
 11 12  2  0
 12 13  1  0
 13 14  2  0
 14  9  1  0
 14 15  1  0
 15 16  1  0
 16 17  1  0
M  END
> <chembl_id>
CHEMBL4548906

> <chembl_pref_name>
None

$$$$
CHEMBL3114561
     RDKit          2D

 30 32  0  0  0  0  0  0  0  0999 V2000
    3.7511   -3.3502    0.0000 N   0  0  0  0  0  0  0  0  0  0  0  0
    3.7086   -2.0274    0.0000 N   0  0  0  0  0  0  0  0  0  0  0  0
    3.2524   -2.7043    0.0000 C   0  0  0  0  0  0  0  0  0  0  0  0
    5.9280   -1.8857    0.0000 N   0  0  0  0  0  0  0  0  0  0  0  0
    6.2992   -2.6125    0.0000 C   0  0  0  0  0  0  0  0  0  0  0  0
    5.9664   -3.3579    0.0000 N   0  0  0  0  0  0  0  0  0  0  0  0
    5.1789   -3.5641    0.0000 C   0  0  0  0  0  0  0  0  0  0  0  0
    5.1200   -1.7260    0.0000 C   0  0  0  0  0  0  0  0  0  0  0  0
    4.5200   -3.0726    0.0000 C   0  0  0  0  0  0  0  0  0  0  0  0
    4.4958   -2.2562    0.0000 C   0  0  0  0  0  0  0  0  0  0  0  0
    4.9143   -0.9352    0.0000 O   0  0  0  0  0  0  0  0  0  0  0  0
    7.1161   -2.5911    0.0000 N   0  0  0  0  0  0  0  0  0  0  0  0
    5.0227   -4.3662    0.0000 O   0  0  0  0  0  0  0  0  0  0  0  0
    7.5431   -3.2879    0.0000 C   0  0  0  0  0  0  0  0  0  0  0  0
    8.3600   -3.2665    0.0000 C   0  0  0  0  0  0  0  0  0  0  0  0
    8.7870   -3.9633    0.0000 C   0  0  0  0  0  0  0  0  0  0  0  0
    9.6039   -3.9419    0.0000 C   0  0  0  0  0  0  0  0  0  0  0  0
   10.0309   -4.6387    0.0000 C   0  0  0  0  0  0  0  0  0  0  0  0
   10.8478   -4.6173    0.0000 C   0  0  0  0  0  0  0  0  0  0  0  0
   11.2747   -5.3141    0.0000 C   0  0  0  0  0  0  0  0  0  0  0  0
   12.0916   -5.2927    0.0000 C   0  0  0  0  0  0  0  0  0  0  0  0
    3.4488   -4.1099    0.0000 C   0  0  0  0  0  0  0  0  0  0  0  0
    2.6590   -4.3106    0.0000 O   0  0  0  0  0  0  0  0  0  0  0  0
    2.6065   -5.1261    0.0000 C   0  0  0  0  0  0  0  0  0  0  0  0
    3.3659   -5.4281    0.0000 C   0  0  0  0  0  0  0  0  0  0  0  0
    3.8876   -4.7992    0.0000 C   0  0  0  0  0  0  0  0  0  0  0  0
    1.9158   -5.5629    0.0000 C   0  0  0  0  0  0  0  0  0  0  0  0
    1.1922   -5.1832    0.0000 O   0  0  0  0  0  0  0  0  0  0  0  0
    3.5679   -6.2199    0.0000 O   0  0  0  0  0  0  0  0  0  0  0  0
    4.7032   -4.8505    0.0000 O   0  0  0  0  0  0  0  0  0  0  0  0
  1  9  1  0
 10  2  1  0
  2  3  2  0
  3  1  1  0
  4  5  2  0
  5  6  1  0
  6  7  1  0
  4  8  1  0
  7  9  1  0
  8 10  1  0
  9 10  2  0
  8 11  2  0
  5 12  1  0
  7 13  2  0
 12 14  1  0
 14 15  1  0
 15 16  1  0
 16 17  1  0
 17 18  1  0
 18 19  1  0
 19 20  1  0
 20 21  1  0
 22  1  1  1
 22 23  1  0
 23 24  1  0
 24 25  1  0
 25 26  1  0
 26 22  1  0
 24 27  1  1
 27 28  1  0
 25 29  1  6
 26 30  1  6
M  END
> <chembl_id>
CHEMBL3114561

> <chembl_pref_name>
None

$$$$
CHEMBL221542
     RDKit          2D

 34 37  0  0  0  0  0  0  0  0999 V2000
   -4.3232   -6.7982    0.0000 C   0  0  0  0  0  0  0  0  0  0  0  0
   -4.3232   -7.6261    0.0000 C   0  0  0  0  0  0  0  0  0  0  0  0
   -3.6101   -8.0379    0.0000 C   0  0  0  0  0  0  0  0  0  0  0  0
   -3.6101   -6.3818    0.0000 C   0  0  0  0  0  0  0  0  0  0  0  0
   -2.8923   -6.7982    0.0000 C   0  0  0  0  0  0  0  0  0  0  0  0
   -2.8912   -7.6261    0.0000 C   0  0  0  0  0  0  0  0  0  0  0  0
   -2.1776   -8.0370    0.0000 C   0  0  0  0  0  0  0  0  0  0  0  0
   -1.4604   -7.6244    0.0000 C   0  0  0  0  0  0  0  0  0  0  0  0
   -2.1798   -6.3810    0.0000 C   0  0  0  0  0  0  0  0  0  0  0  0
   -1.4612   -6.7994    0.0000 C   0  0  0  0  0  0  0  0  0  0  0  0
   -1.4567   -5.1392    0.0000 C   0  0  0  0  0  0  0  0  0  0  0  0
   -2.1806   -5.5517    0.0000 C   0  0  0  0  0  0  0  0  0  0  0  0
   -5.0363   -8.0379    0.0000 O   0  0  0  0  0  0  0  0  0  0  0  0
   -2.9005   -5.9747    0.0000 C   0  0  0  0  0  0  0  0  0  0  0  0
   -1.4685   -5.9747    0.0000 H   0  0  0  0  0  0  0  0  0  0  0  0
   -2.1868   -7.2007    0.0000 H   0  0  0  0  0  0  0  0  0  0  0  0
   -0.7548   -7.2099    0.0000 H   0  0  0  0  0  0  0  0  0  0  0  0
   -0.7342   -5.5593    0.0000 C   0  0  0  0  0  0  0  0  0  0  0  0
   -0.7457   -6.3909    0.0000 C   0  0  0  0  0  0  0  0  0  0  0  0
    0.0418   -6.6590    0.0000 C   0  0  0  0  0  0  0  0  0  0  0  0
    0.5401   -5.9928    0.0000 C   0  0  0  0  0  0  0  0  0  0  0  0
    0.0601   -5.3133    0.0000 C   0  0  0  0  0  0  0  0  0  0  0  0
    0.4709   -4.5996    0.0000 C   0  0  0  0  0  0  0  0  0  0  0  0
    1.2944   -4.5987    0.0000 C   0  0  0  0  0  0  0  0  0  0  0  0
    1.7070   -5.3113    0.0000 C   0  0  0  0  0  0  0  0  0  0  0  0
    2.5304   -5.3102    0.0000 C   0  0  0  0  0  0  0  0  0  0  0  0
    2.9431   -6.0229    0.0000 C   0  0  0  0  0  0  0  0  0  0  0  0
    3.7665   -6.0219    0.0000 C   0  0  0  0  0  0  0  0  0  0  0  0
    2.5322   -6.7366    0.0000 C   0  0  0  0  0  0  0  0  0  0  0  0
    2.9413   -4.5966    0.0000 C   0  0  0  0  0  0  0  0  0  0  0  0
    3.7648   -4.5956    0.0000 C   0  0  0  0  0  0  0  0  0  0  0  0
    0.0583   -3.8871    0.0000 C   0  0  0  0  0  0  0  0  0  0  0  0
   -0.7411   -4.7349    0.0000 C   0  0  0  0  0  0  0  0  0  0  0  0
    0.8830   -5.3113    0.0000 H   0  0  0  0  0  0  0  0  0  0  0  0
  5  9  1  0
  9 16  1  6
  6  7  2  0
 19 17  1  6
 18 19  1  0
  7  8  1  0
  8 10  1  0
  9 10  1  0
  3  6  1  0
  5  4  1  0
 19 20  1  0
 20 21  1  0
 21 22  1  0
 22 18  1  0
  5  6  1  0
 22 23  1  0
 23 24  1  0
  9 12  1  0
 24 25  1  0
 10 19  1  0
 25 26  1  0
 18 11  1  0
 26 27  1  0
 11 12  1  0
 27 28  1  0
  1  2  1  0
 27 29  1  0
  2 13  1  1
 26 30  1  1
  1  4  1  0
 30 31  1  0
  5 14  1  1
 23 32  1  6
  2  3  1  0
 18 33  1  1
 10 15  1  1
 22 34  1  6
M  END
> <chembl_id>
CHEMBL221542

> <chembl_pref_name>
BETA-SITOSTEROL

$$$$
CHEMBL1971815
     RDKit          2D

 27 30  0  0  0  0  0  0  0  0999 V2000
    0.1366    1.2737    0.0000 S   0  0  0  0  0  0  0  0  0  0  0  0
    0.3915    3.3932    0.0000 O   0  0  0  0  0  0  0  0  0  0  0  0
   -3.2275    2.6086    0.0000 O   0  0  0  0  0  0  0  0  0  0  0  0
    3.9215    0.5122    0.0000 O   0  0  0  0  0  0  0  0  0  0  0  0
    3.0965   -0.9168    0.0000 O   0  0  0  0  0  0  0  0  0  0  0  0
   -0.6480    2.3536    0.0000 N   0  0  0  0  0  0  0  0  0  0  0  0
   -1.4326    2.6086    0.0000 N   0  0  0  0  0  0  0  0  0  0  0  0
   -1.4326    1.2737    0.0000 N   0  0  0  0  0  0  0  0  0  0  0  0
   -0.6480    1.5286    0.0000 C   0  0  0  0  0  0  0  0  0  0  0  0
    0.1366    2.6086    0.0000 C   0  0  0  0  0  0  0  0  0  0  0  0
    0.6215    1.9411    0.0000 C   0  0  0  0  0  0  0  0  0  0  0  0
   -1.9176    1.9411    0.0000 C   0  0  0  0  0  0  0  0  0  0  0  0
   -2.7426    1.9411    0.0000 C   0  0  0  0  0  0  0  0  0  0  0  0
    1.4465    1.9411    0.0000 C   0  0  0  0  0  0  0  0  0  0  0  0
    1.8590    1.2266    0.0000 C   0  0  0  0  0  0  0  0  0  0  0  0
   -3.2275    1.2737    0.0000 C   0  0  0  0  0  0  0  0  0  0  0  0
    2.6840    1.2266    0.0000 C   0  0  0  0  0  0  0  0  0  0  0  0
    3.0965    0.5122    0.0000 C   0  0  0  0  0  0  0  0  0  0  0  0
    1.4465    0.5122    0.0000 C   0  0  0  0  0  0  0  0  0  0  0  0
    2.6840   -0.2023    0.0000 C   0  0  0  0  0  0  0  0  0  0  0  0
    1.8590   -0.2023    0.0000 C   0  0  0  0  0  0  0  0  0  0  0  0
   -4.0121    2.3536    0.0000 C   0  0  0  0  0  0  0  0  0  0  0  0
   -4.0121    1.5286    0.0000 C   0  0  0  0  0  0  0  0  0  0  0  0
    4.3340    1.2266    0.0000 C   0  0  0  0  0  0  0  0  0  0  0  0
    2.6840   -1.6312    0.0000 C   0  0  0  0  0  0  0  0  0  0  0  0
    5.1590    1.2266    0.0000 C   0  0  0  0  0  0  0  0  0  0  0  0
    3.0965   -2.3457    0.0000 C   0  0  0  0  0  0  0  0  0  0  0  0
  1  9  1  0
  1 11  1  0
  2 10  2  0
  3 13  1  0
  3 22  1  0
  4 18  1  0
  4 24  1  0
  5 20  1  0
  5 25  1  0
  6  7  1  0
  6  9  1  0
  6 10  1  0
  7 12  2  0
  8  9  2  0
  8 12  1  0
 10 11  1  0
 11 14  2  0
 12 13  1  0
 13 16  2  0
 14 15  1  0
 15 17  1  0
 15 19  2  0
 16 23  1  0
 17 18  2  0
 18 20  1  0
 19 21  1  0
 20 21  2  0
 22 23  2  0
 24 26  1  0
 25 27  1  0
M  END
> <chembl_id>
CHEMBL1971815

> <chembl_pref_name>
None

$$$$
CHEMBL1566266
     RDKit          2D

 28 31  0  0  0  0  0  0  0  0999 V2000
    0.0327   -3.7245    0.0000 S   0  0  0  0  0  0  0  0  0  0  0  0
   -2.0637   -6.6844    0.0000 O   0  0  0  0  0  0  0  0  0  0  0  0
   -3.5789   -5.0389    0.0000 O   0  0  0  0  0  0  0  0  0  0  0  0
    1.4616   -2.8995    0.0000 O   0  0  0  0  0  0  0  0  0  0  0  0
   -0.6818   -4.9620    0.0000 N   0  0  0  0  0  0  0  0  0  0  0  0
   -2.1107   -4.1370    0.0000 N   0  0  0  0  0  0  0  0  0  0  0  0
   -1.3962   -3.7245    0.0000 N   0  0  0  0  0  0  0  0  0  0  0  0
    0.7472   -1.6620    0.0000 N   0  0  0  0  0  0  0  0  0  0  0  0
   -1.3962   -5.3745    0.0000 C   0  0  0  0  0  0  0  0  0  0  0  0
   -2.1107   -4.9620    0.0000 C   0  0  0  0  0  0  0  0  0  0  0  0
   -1.3962   -6.1995    0.0000 C   0  0  0  0  0  0  0  0  0  0  0  0
   -2.8252   -5.3745    0.0000 C   0  0  0  0  0  0  0  0  0  0  0  0
   -0.6818   -4.1370    0.0000 C   0  0  0  0  0  0  0  0  0  0  0  0
   -0.7288   -6.6844    0.0000 C   0  0  0  0  0  0  0  0  0  0  0  0
   -2.9114   -6.1949    0.0000 C   0  0  0  0  0  0  0  0  0  0  0  0
   -1.8087   -7.4690    0.0000 C   0  0  0  0  0  0  0  0  0  0  0  0
   -0.9837   -7.4690    0.0000 C   0  0  0  0  0  0  0  0  0  0  0  0
   -4.1309   -5.6520    0.0000 C   0  0  0  0  0  0  0  0  0  0  0  0
   -3.7184   -6.3665    0.0000 C   0  0  0  0  0  0  0  0  0  0  0  0
    0.0327   -2.8995    0.0000 C   0  0  0  0  0  0  0  0  0  0  0  0
    0.7472   -2.4870    0.0000 C   0  0  0  0  0  0  0  0  0  0  0  0
    1.4616   -1.2495    0.0000 C   0  0  0  0  0  0  0  0  0  0  0  0
    1.4616   -0.4245    0.0000 C   0  0  0  0  0  0  0  0  0  0  0  0
    2.1761   -1.6620    0.0000 C   0  0  0  0  0  0  0  0  0  0  0  0
    2.1761   -0.0120    0.0000 C   0  0  0  0  0  0  0  0  0  0  0  0
    2.8906   -1.2495    0.0000 C   0  0  0  0  0  0  0  0  0  0  0  0
    2.8906   -0.4245    0.0000 C   0  0  0  0  0  0  0  0  0  0  0  0
    0.7472   -0.0120    0.0000 C   0  0  0  0  0  0  0  0  0  0  0  0
  1 13  1  0
  1 20  1  0
  2 11  1  0
  2 16  1  0
  3 12  1  0
  3 18  1  0
  4 21  2  0
  5  9  2  0
  5 13  1  0
  6  7  1  0
  6 10  2  0
  7 13  2  0
  8 21  1  0
  8 22  1  0
  9 10  1  0
  9 11  1  0
 10 12  1  0
 11 14  2  0
 12 15  2  0
 14 17  1  0
 15 19  1  0
 16 17  2  0
 18 19  2  0
 20 21  1  0
 22 23  1  0
 22 24  2  0
 23 25  2  0
 23 28  1  0
 24 26  1  0
 25 27  1  0
 26 27  2  0
M  END
> <chembl_id>
CHEMBL1566266

> <chembl_pref_name>
None

$$$$
CHEMBL1387835
     RDKit          2D

 37 41  0  0  0  0  0  0  0  0999 V2000
    1.1995    0.6040    0.0000 S   0  0  0  0  0  0  0  0  0  0  0  0
   -1.6584    3.0790    0.0000 F   0  0  0  0  0  0  0  0  0  0  0  0
   -3.0874    0.6040    0.0000 O   0  0  0  0  0  0  0  0  0  0  0  0
   -4.5163    3.9040    0.0000 O   0  0  0  0  0  0  0  0  0  0  0  0
   -6.6597    2.6665    0.0000 O   0  0  0  0  0  0  0  0  0  0  0  0
   -5.9453    3.9040    0.0000 O   0  0  0  0  0  0  0  0  0  0  0  0
   -4.5163    1.4290    0.0000 N   0  0  0  0  0  0  0  0  0  0  0  0
   -1.6584    1.4290    0.0000 N   0  0  0  0  0  0  0  0  0  0  0  0
   -0.2295    0.6040    0.0000 N   0  0  0  0  0  0  0  0  0  0  0  0
    0.4850   -0.6335    0.0000 N   0  0  0  0  0  0  0  0  0  0  0  0
   -3.8018    1.8415    0.0000 C   0  0  0  0  0  0  0  0  0  0  0  0
   -3.8018    2.6665    0.0000 C   0  0  0  0  0  0  0  0  0  0  0  0
   -3.0874    1.4290    0.0000 C   0  0  0  0  0  0  0  0  0  0  0  0
   -2.3729    1.8415    0.0000 C   0  0  0  0  0  0  0  0  0  0  0  0
   -4.5163    3.0790    0.0000 C   0  0  0  0  0  0  0  0  0  0  0  0
   -4.5163    0.6040    0.0000 C   0  0  0  0  0  0  0  0  0  0  0  0
   -2.3729    2.6665    0.0000 C   0  0  0  0  0  0  0  0  0  0  0  0
   -5.2308    2.6665    0.0000 C   0  0  0  0  0  0  0  0  0  0  0  0
   -3.0874    3.0790    0.0000 C   0  0  0  0  0  0  0  0  0  0  0  0
   -5.2308    1.8415    0.0000 C   0  0  0  0  0  0  0  0  0  0  0  0
   -4.1038   -0.1105    0.0000 C   0  0  0  0  0  0  0  0  0  0  0  0
   -4.9288   -0.1105    0.0000 C   0  0  0  0  0  0  0  0  0  0  0  0
   -5.9453    3.0790    0.0000 C   0  0  0  0  0  0  0  0  0  0  0  0
   -0.9440    1.8415    0.0000 C   0  0  0  0  0  0  0  0  0  0  0  0
   -1.6584    0.6040    0.0000 C   0  0  0  0  0  0  0  0  0  0  0  0
   -0.2295    1.4290    0.0000 C   0  0  0  0  0  0  0  0  0  0  0  0
   -0.9440    0.1915    0.0000 C   0  0  0  0  0  0  0  0  0  0  0  0
    0.4850    0.1915    0.0000 C   0  0  0  0  0  0  0  0  0  0  0  0
   -2.3729    0.1915    0.0000 C   0  0  0  0  0  0  0  0  0  0  0  0
    0.4850    1.8415    0.0000 C   0  0  0  0  0  0  0  0  0  0  0  0
    1.1995   -1.0460    0.0000 C   0  0  0  0  0  0  0  0  0  0  0  0
    1.1995   -1.8710    0.0000 C   0  0  0  0  0  0  0  0  0  0  0  0
    1.9139   -2.2835    0.0000 C   0  0  0  0  0  0  0  0  0  0  0  0
    0.4850   -2.2835    0.0000 C   0  0  0  0  0  0  0  0  0  0  0  0
    1.9139   -3.1085    0.0000 C   0  0  0  0  0  0  0  0  0  0  0  0
    0.4850   -3.1085    0.0000 C   0  0  0  0  0  0  0  0  0  0  0  0
    1.1995   -3.5210    0.0000 C   0  0  0  0  0  0  0  0  0  0  0  0
  1 28  1  0
  2 17  1  0
  3 13  1  0
  3 29  1  0
  4 15  2  0
  5 23  2  0
  6 23  1  0
  7 11  1  0
  7 16  1  0
  7 20  1  0
  8 14  1  0
  8 24  1  0
  8 25  1  0
  9 26  1  0
  9 27  1  0
  9 28  1  0
 10 28  2  3
 10 31  1  0
 11 12  2  0
 11 13  1  0
 12 15  1  0
 12 19  1  0
 13 14  2  0
 14 17  1  0
 15 18  1  0
 16 21  1  0
 16 22  1  0
 17 19  2  0
 18 20  2  0
 18 23  1  0
 21 22  1  0
 24 26  1  0
 25 27  1  0
 26 30  1  0
 31 32  1  0
 32 33  2  0
 32 34  1  0
 33 35  1  0
 34 36  2  0
 35 37  2  0
 36 37  1  0
M  END
> <chembl_id>
CHEMBL1387835

> <chembl_pref_name>
None

$$$$
CHEMBL288293
     RDKit          2D

 40 45  0  0  0  0  0  0  0  0999 V2000
   10.1292   -9.0375    0.0000 C   0  0  0  0  0  0  0  0  0  0  0  0
    0.8667   -6.0917    0.0000 C   0  0  0  0  0  0  0  0  0  0  0  0
    0.1417   -6.5000    0.0000 N   0  0  0  0  0  0  0  0  0  0  0  0
   10.7542   -8.6750    0.0000 N   0  0  0  0  0  0  0  0  0  0  0  0
    0.8667   -5.2625    0.0000 S   0  0  0  0  0  0  0  0  0  0  0  0
   10.1167   -9.7542    0.0000 S   0  0  0  0  0  0  0  0  0  0  0  0
   11.3667   -9.7625    0.0000 C   0  0  0  0  0  0  0  0  0  0  0  0
    0.1542   -4.8542    0.0000 C   0  0  0  0  0  0  0  0  0  0  0  0
   -0.5583   -5.2625    0.0000 C   0  0  0  0  0  0  0  0  0  0  0  0
   11.3667   -9.0500    0.0000 C   0  0  0  0  0  0  0  0  0  0  0  0
    9.4167   -8.6250    0.0000 C   0  0  0  0  0  0  0  0  0  0  0  0
    1.5667   -6.5125    0.0000 C   0  0  0  0  0  0  0  0  0  0  0  0
    6.5667   -7.7792    0.0000 C   0  0  0  0  0  0  0  0  0  0  0  0
    4.4167   -7.3542    0.0000 C   0  0  0  0  0  0  0  0  0  0  0  0
    3.7042   -7.7625    0.0000 N   0  0  0  0  0  0  0  0  0  0  0  0
    7.2792   -7.3750    0.0000 N   0  0  0  0  0  0  0  0  0  0  0  0
   11.9792  -10.1250    0.0000 C   0  0  0  0  0  0  0  0  0  0  0  0
    0.1542   -4.0250    0.0000 C   0  0  0  0  0  0  0  0  0  0  0  0
    6.5542   -8.6042    0.0000 O   0  0  0  0  0  0  0  0  0  0  0  0
    4.4292   -6.5292    0.0000 O   0  0  0  0  0  0  0  0  0  0  0  0
   -1.2833   -4.8542    0.0000 C   0  0  0  0  0  0  0  0  0  0  0  0
   11.9917   -8.6917    0.0000 C   0  0  0  0  0  0  0  0  0  0  0  0
    2.2917   -6.1000    0.0000 C   0  0  0  0  0  0  0  0  0  0  0  0
    9.4167   -7.7917    0.0000 C   0  0  0  0  0  0  0  0  0  0  0  0
    8.6917   -9.0292    0.0000 C   0  0  0  0  0  0  0  0  0  0  0  0
    1.5667   -7.3375    0.0000 C   0  0  0  0  0  0  0  0  0  0  0  0
    7.9917   -7.7875    0.0000 C   0  0  0  0  0  0  0  0  0  0  0  0
    2.9917   -7.3417    0.0000 C   0  0  0  0  0  0  0  0  0  0  0  0
    5.1292   -7.7750    0.0000 C   0  0  0  0  0  0  0  0  0  0  0  0
    5.8542   -7.3625    0.0000 C   0  0  0  0  0  0  0  0  0  0  0  0
   12.6042   -9.7667    0.0000 C   0  0  0  0  0  0  0  0  0  0  0  0
   -0.5583   -3.6125    0.0000 C   0  0  0  0  0  0  0  0  0  0  0  0
    7.9792   -8.6125    0.0000 C   0  0  0  0  0  0  0  0  0  0  0  0
    2.9917   -6.5125    0.0000 C   0  0  0  0  0  0  0  0  0  0  0  0
    8.7042   -7.3792    0.0000 C   0  0  0  0  0  0  0  0  0  0  0  0
    2.2792   -7.7500    0.0000 C   0  0  0  0  0  0  0  0  0  0  0  0
   -1.2833   -4.0292    0.0000 C   0  0  0  0  0  0  0  0  0  0  0  0
   12.6042   -9.0500    0.0000 C   0  0  0  0  0  0  0  0  0  0  0  0
   -0.5708   -2.7875    0.0000 C   0  0  0  0  0  0  0  0  0  0  0  0
   13.2292  -10.1292    0.0000 C   0  0  0  0  0  0  0  0  0  0  0  0
  2 12  1  0
  3  2  2  0
  4  1  2  0
  5  2  1  0
  6  1  1  0
  7  6  1  0
  8  5  1  0
  9  3  1  0
 10  4  1  0
 11  1  1  0
 12 26  2  0
 13 16  1  0
 14 29  1  0
 15 14  1  0
 16 27  1  0
 17  7  1  0
 18  8  1  0
 19 13  2  0
 20 14  2  0
 21  9  1  0
 22 10  1  0
 23 34  2  0
 24 11  1  0
 25 11  2  0
 26 36  1  0
 27 33  2  0
 28 15  1  0
 29 30  1  0
 30 13  1  0
 31 17  2  0
 32 18  2  0
 33 25  1  0
 34 28  1  0
 35 24  2  0
 36 28  2  0
 37 21  2  0
 38 22  2  0
 39 32  1  0
 40 31  1  0
 10  7  2  0
 35 27  1  0
 38 31  1  0
 23 12  1  0
  8  9  2  0
 32 37  1  0
M  END
> <chembl_id>
CHEMBL288293

> <chembl_pref_name>
None

$$$$
CHEMBL1991888
     RDKit          2D

 22 24  0  0  0  0  0  0  0  0999 V2000
    1.7960   -1.9495    0.0000 Cl  0  0  0  0  0  0  0  0  0  0  0  0
   -0.9784   -2.6354    0.0000 Cl  0  0  0  0  0  0  0  0  0  0  0  0
    0.2115    1.4830    0.0000 S   0  0  0  0  0  0  0  0  0  0  0  0
    1.4000   -0.3478    0.0000 O   0  0  0  0  0  0  0  0  0  0  0  0
   -0.7791    2.5129    0.0000 N   0  0  0  0  0  0  0  0  0  0  0  0
   -0.9777    0.3392    0.0000 N   0  0  0  0  0  0  0  0  0  0  0  0
   -1.1757    1.1401    0.0000 N   0  0  0  0  0  0  0  0  0  0  0  0
    0.5910    3.4751    0.0000 C   0  0  0  0  0  0  0  0  0  0  0  0
   -0.1845    3.0848    0.0000 C   0  0  0  0  0  0  0  0  0  0  0  0
    0.0128   -0.6907    0.0000 C   0  0  0  0  0  0  0  0  0  0  0  0
    0.8054   -0.9197    0.0000 C   0  0  0  0  0  0  0  0  0  0  0  0
    0.8211    4.1955    0.0000 C   0  0  0  0  0  0  0  0  0  0  0  0
    1.0034   -1.7206    0.0000 C   0  0  0  0  0  0  0  0  0  0  0  0
    0.6611    5.0109    0.0000 C   0  0  0  0  0  0  0  0  0  0  0  0
    0.1808    3.7453    0.0000 C   0  0  0  0  0  0  0  0  0  0  0  0
   -0.3838   -2.0635    0.0000 C   0  0  0  0  0  0  0  0  0  0  0  0
   -0.5818   -1.2626    0.0000 C   0  0  0  0  0  0  0  0  0  0  0  0
    1.3215    3.1048    0.0000 C   0  0  0  0  0  0  0  0  0  0  0  0
    0.4088   -2.2925    0.0000 C   0  0  0  0  0  0  0  0  0  0  0  0
    1.6166    3.7302    0.0000 C   0  0  0  0  0  0  0  0  0  0  0  0
   -0.1852    0.1102    0.0000 C   0  0  0  0  0  0  0  0  0  0  0  0
   -0.5811    1.7120    0.0000 C   0  0  0  0  0  0  0  0  0  0  0  0
  1 13  1  0
  2 16  1  0
  3 22  2  0
  4 11  1  0
  5  9  1  0
  5 22  1  0
  6  7  1  0
  6 21  2  0
  7 22  1  0
  8  9  1  0
  8 14  1  0
  8 18  1  0
  9 15  1  0
 10 11  1  0
 10 17  2  0
 10 21  1  0
 11 13  2  0
 12 14  1  0
 12 15  1  0
 12 20  1  0
 13 19  1  0
 16 17  1  0
 16 19  2  0
 18 20  2  0
M  END
> <chembl_id>
CHEMBL1991888

> <chembl_pref_name>
None

$$$$
CHEMBL2059289
     RDKit          2D

 26 28  0  0  0  0  0  0  0  0999 V2000
   10.1621  -16.9889    0.0000 C   0  0  0  0  0  0  0  0  0  0  0  0
    9.4405  -16.5895    0.0000 C   0  0  0  0  0  0  0  0  0  0  0  0
    9.4268  -15.7688    0.0000 C   0  0  0  0  0  0  0  0  0  0  0  0
    8.7353  -17.0142    0.0000 C   0  0  0  0  0  0  0  0  0  0  0  0
    8.7512  -17.8385    0.0000 C   0  0  0  0  0  0  0  0  0  0  0  0
   10.9319  -16.7014    0.0000 O   0  0  0  0  0  0  0  0  0  0  0  0
   13.7270  -18.2373    0.0000 C   0  0  0  0  0  0  0  0  0  0  0  0
   12.3003  -18.2288    0.0000 C   0  0  0  0  0  0  0  0  0  0  0  0
   13.0157  -17.8172    0.0000 C   0  0  0  0  0  0  0  0  0  0  0  0
   14.4425  -17.8278    0.0000 C   0  0  0  0  0  0  0  0  0  0  0  0
   12.2939  -19.0562    0.0000 C   0  0  0  0  0  0  0  0  0  0  0  0
   13.7270  -19.0562    0.0000 C   0  0  0  0  0  0  0  0  0  0  0  0
   11.5889  -19.4678    0.0000 O   0  0  0  0  0  0  0  0  0  0  0  0
   15.1538  -18.2436    0.0000 C   0  0  0  0  0  0  0  0  0  0  0  0
   14.4362  -19.4762    0.0000 O   0  0  0  0  0  0  0  0  0  0  0  0
   13.0094  -19.4678    0.0000 C   0  0  0  0  0  0  0  0  0  0  0  0
   10.8736  -19.0560    0.0000 C   0  0  0  0  0  0  0  0  0  0  0  0
   11.5889  -17.8110    0.0000 C   0  0  0  0  0  0  0  0  0  0  0  0
   15.1538  -19.0668    0.0000 C   0  0  0  0  0  0  0  0  0  0  0  0
   10.8734  -18.2288    0.0000 C   0  0  0  0  0  0  0  0  0  0  0  0
   14.4425  -16.9900    0.0000 O   0  0  0  0  0  0  0  0  0  0  0  0
   13.0157  -16.9900    0.0000 O   0  0  0  0  0  0  0  0  0  0  0  0
   10.1622  -17.8172    0.0000 O   0  0  0  0  0  0  0  0  0  0  0  0
   10.5125  -19.8016    0.0000 C   0  0  0  0  0  0  0  0  0  0  0  0
   10.0474  -19.0768    0.0000 C   0  0  0  0  0  0  0  0  0  0  0  0
   15.8629  -19.4826    0.0000 C   0  0  0  0  0  0  0  0  0  0  0  0
  2  3  1  0
  2  4  2  0
  4  5  1  0
  1  6  2  0
  1  2  1  0
  8  9  2  0
  9  7  1  0
 10  7  1  0
 11 16  2  0
 12  7  2  0
 13 11  1  0
 14 10  1  0
 15 12  1  0
 16 12  1  0
 17 13  1  0
 18  8  1  0
 19 15  1  0
 20 18  1  0
 21 10  2  0
 22  9  1  0
 20 23  1  1
 24 17  1  0
 25 17  1  0
 26 19  1  0
  8 11  1  0
 19 14  2  0
 20 17  1  0
 23  1  1  0
M  END
> <chembl_id>
CHEMBL2059289

> <chembl_pref_name>
None

$$$$
CHEMBL260553
     RDKit          2D

 29 31  0  0  0  0  0  0  0  0999 V2000
   14.3157  -17.3100    0.0000 C   0  0  0  0  0  0  0  0  0  0  0  0
   14.3145  -18.1375    0.0000 C   0  0  0  0  0  0  0  0  0  0  0  0
   15.0273  -18.5504    0.0000 C   0  0  0  0  0  0  0  0  0  0  0  0
   15.0254  -16.8972    0.0000 C   0  0  0  0  0  0  0  0  0  0  0  0
   15.7435  -17.3059    0.0000 C   0  0  0  0  0  0  0  0  0  0  0  0
   15.7472  -18.1396    0.0000 C   0  0  0  0  0  0  0  0  0  0  0  0
   16.4669  -18.5508    0.0000 O   0  0  0  0  0  0  0  0  0  0  0  0
   16.4595  -16.8837    0.0000 C   0  0  0  0  0  0  0  0  0  0  0  0
   17.1840  -17.2996    0.0000 C   0  0  0  0  0  0  0  0  0  0  0  0
   17.1837  -18.1330    0.0000 C   0  0  0  0  0  0  0  0  0  0  0  0
   17.9043  -18.5480    0.0000 C   0  0  0  0  0  0  0  0  0  0  0  0
   18.6254  -18.1308    0.0000 C   0  0  0  0  0  0  0  0  0  0  0  0
   13.6010  -16.8981    0.0000 O   0  0  0  0  0  0  0  0  0  0  0  0
   13.5994  -18.5490    0.0000 O   0  0  0  0  0  0  0  0  0  0  0  0
   15.0215  -16.0723    0.0000 C   0  0  0  0  0  0  0  0  0  0  0  0
   14.3052  -15.6631    0.0000 C   0  0  0  0  0  0  0  0  0  0  0  0
   14.3013  -14.8382    0.0000 C   0  0  0  0  0  0  0  0  0  0  0  0
   13.5850  -14.4291    0.0000 C   0  0  0  0  0  0  0  0  0  0  0  0
   15.0138  -14.4224    0.0000 C   0  0  0  0  0  0  0  0  0  0  0  0
   16.4547  -16.0587    0.0000 O   0  0  0  0  0  0  0  0  0  0  0  0
   17.9004  -16.8829    0.0000 C   0  0  0  0  0  0  0  0  0  0  0  0
   18.6212  -17.2897    0.0000 C   0  0  0  0  0  0  0  0  0  0  0  0
   17.8883  -16.0576    0.0000 O   0  0  0  0  0  0  0  0  0  0  0  0
   19.3411  -18.5410    0.0000 O   0  0  0  0  0  0  0  0  0  0  0  0
   19.3325  -16.8719    0.0000 C   0  0  0  0  0  0  0  0  0  0  0  0
   20.0500  -17.2791    0.0000 C   0  0  0  0  0  0  0  0  0  0  0  0
   20.7613  -16.8612    0.0000 C   0  0  0  0  0  0  0  0  0  0  0  0
   21.4788  -17.2684    0.0000 C   0  0  0  0  0  0  0  0  0  0  0  0
   20.7553  -16.0364    0.0000 C   0  0  0  0  0  0  0  0  0  0  0  0
  1 13  1  0
  3  6  2  0
  2 14  1  0
  1  2  2  0
  4 15  1  0
  5  8  1  0
 15 16  1  0
  6  7  1  0
 16 17  2  0
  7 10  1  0
 17 18  1  0
  9  8  1  0
 17 19  1  0
  5  4  2  0
  8 20  2  0
 21 22  2  0
  4  1  1  0
  9 10  2  0
  5  6  1  0
 21 23  1  0
 10 11  1  0
 12 24  1  0
 22 25  1  0
 11 12  2  0
 25 26  1  0
 12 22  1  0
 26 27  2  0
 21  9  1  0
 27 28  1  0
  2  3  1  0
 27 29  1  0
M  END
> <chembl_id>
CHEMBL260553

> <chembl_pref_name>
None

$$$$
CHEMBL1543865
     RDKit          2D

 23 25  0  0  0  0  0  0  0  0999 V2000
    2.1431    1.3629    0.0000 Br  0  0  0  0  0  0  0  0  0  0  0  0
   -2.1437    3.0129    0.0000 O   0  0  0  0  0  0  0  0  0  0  0  0
   -2.8582    1.7754    0.0000 O   0  0  0  0  0  0  0  0  0  0  0  0
   -2.1437   -1.1121    0.0000 O   0  0  0  0  0  0  0  0  0  0  0  0
   -2.1437    0.5379    0.0000 N   0  0  0  0  0  0  0  0  0  0  0  0
   -1.4292    1.7754    0.0000 C   0  0  0  0  0  0  0  0  0  0  0  0
   -0.0003    1.7754    0.0000 C   0  0  0  0  0  0  0  0  0  0  0  0
   -0.0003    2.6004    0.0000 C   0  0  0  0  0  0  0  0  0  0  0  0
   -1.4292    2.6004    0.0000 C   0  0  0  0  0  0  0  0  0  0  0  0
   -0.7147    1.3629    0.0000 C   0  0  0  0  0  0  0  0  0  0  0  0
   -2.1437    1.3629    0.0000 C   0  0  0  0  0  0  0  0  0  0  0  0
   -0.7147    3.0129    0.0000 C   0  0  0  0  0  0  0  0  0  0  0  0
    0.7142    1.3629    0.0000 C   0  0  0  0  0  0  0  0  0  0  0  0
   -2.8582    0.1254    0.0000 C   0  0  0  0  0  0  0  0  0  0  0  0
    0.7142    3.0129    0.0000 C   0  0  0  0  0  0  0  0  0  0  0  0
    1.4287    1.7754    0.0000 C   0  0  0  0  0  0  0  0  0  0  0  0
   -2.8582   -0.6996    0.0000 C   0  0  0  0  0  0  0  0  0  0  0  0
    1.4287    2.6004    0.0000 C   0  0  0  0  0  0  0  0  0  0  0  0
   -3.5726    0.5379    0.0000 C   0  0  0  0  0  0  0  0  0  0  0  0
   -3.5726   -1.1121    0.0000 C   0  0  0  0  0  0  0  0  0  0  0  0
   -4.2871    0.1254    0.0000 C   0  0  0  0  0  0  0  0  0  0  0  0
   -4.2871   -0.6996    0.0000 C   0  0  0  0  0  0  0  0  0  0  0  0
   -2.1437   -1.9371    0.0000 C   0  0  0  0  0  0  0  0  0  0  0  0
  1 16  1  0
  2  9  1  0
  3 11  2  0
  4 17  1  0
  4 23  1  0
  5 11  1  0
  5 14  1  0
  6  9  1  0
  6 10  2  0
  6 11  1  0
  7  8  1  0
  7 10  1  0
  7 13  2  0
  8 12  1  0
  8 15  2  0
  9 12  2  0
 13 16  1  0
 14 17  1  0
 14 19  2  0
 15 18  1  0
 16 18  2  0
 17 20  2  0
 19 21  1  0
 20 22  1  0
 21 22  2  0
M  END
> <chembl_id>
CHEMBL1543865

> <chembl_pref_name>
None

$$$$
CHEMBL125475
     RDKit          2D

 23 25  0  0  0  0  0  0  0  0999 V2000
   -3.7733   -5.8701    0.0000 C   0  0  0  0  0  0  0  0  0  0  0  0
   -3.7745   -6.6967    0.0000 C   0  0  0  0  0  0  0  0  0  0  0  0
   -3.0603   -7.1093    0.0000 C   0  0  0  0  0  0  0  0  0  0  0  0
   -3.0621   -5.4577    0.0000 C   0  0  0  0  0  0  0  0  0  0  0  0
   -2.3472   -5.8664    0.0000 C   0  0  0  0  0  0  0  0  0  0  0  0
   -2.3484   -6.6988    0.0000 C   0  0  0  0  0  0  0  0  0  0  0  0
   -1.6321   -7.1138    0.0000 N   0  0  0  0  0  0  0  0  0  0  0  0
   -1.6297   -5.4490    0.0000 C   0  0  0  0  0  0  0  0  0  0  0  0
   -0.9088   -5.8685    0.0000 C   0  0  0  0  0  0  0  0  0  0  0  0
   -0.9101   -6.6967    0.0000 C   0  0  0  0  0  0  0  0  0  0  0  0
   -0.1946   -7.1102    0.0000 C   0  0  0  0  0  0  0  0  0  0  0  0
    0.5226   -6.6965    0.0000 C   0  0  0  0  0  0  0  0  0  0  0  0
    0.5199   -5.8651    0.0000 C   0  0  0  0  0  0  0  0  0  0  0  0
   -0.1962   -5.4555    0.0000 C   0  0  0  0  0  0  0  0  0  0  0  0
   -1.6297   -4.6246    0.0000 O   0  0  0  0  0  0  0  0  0  0  0  0
   -0.1950   -7.9345    0.0000 C   0  0  0  0  0  0  0  0  0  0  0  0
   -0.9090   -8.3464    0.0000 O   0  0  0  0  0  0  0  0  0  0  0  0
    0.5187   -8.3470    0.0000 N   0  0  0  0  0  0  0  0  0  0  0  0
    0.5184   -9.1713    0.0000 C   0  0  0  0  0  0  0  0  0  0  0  0
   -0.1956   -9.5831    0.0000 C   0  0  0  0  0  0  0  0  0  0  0  0
   -0.1960  -10.4074    0.0000 N   0  0  0  0  0  0  0  0  0  0  0  0
   -0.9100  -10.8193    0.0000 C   0  0  0  0  0  0  0  0  0  0  0  0
    0.5177  -10.8199    0.0000 C   0  0  0  0  0  0  0  0  0  0  0  0
 10 11  1  0
 11 12  2  0
  2  3  1  0
 12 13  1  0
  3  6  2  0
 13 14  2  0
 14  9  1  0
  1  2  2  0
  8 15  2  0
  5  8  1  0
 11 16  1  0
  6  7  1  0
 16 17  2  0
  7 10  1  0
 16 18  1  0
  9  8  1  0
 18 19  1  0
  5  4  2  0
 19 20  1  0
  4  1  1  0
 20 21  1  0
  9 10  2  0
 21 22  1  0
  5  6  1  0
 21 23  1  0
M  END
> <chembl_id>
CHEMBL125475

> <chembl_pref_name>
None

$$$$
CHEMBL504459
     RDKit          2D

 57 63  0  0  1  0  0  0  0  0999 V2000
    2.1000    1.3875    0.0000 C   0  0  0  0  0  0  0  0  0  0  0  0
    0.3417    1.1333    0.0000 C   0  0  0  0  0  0  0  0  0  0  0  0
   -0.8750    0.5250    0.0000 C   0  0  0  0  0  0  0  0  0  0  0  0
    0.3000    0.4625    0.0000 C   0  0  0  0  0  0  0  0  0  0  0  0
    1.5167    1.0750    0.0000 C   0  0  0  0  0  0  0  0  0  0  0  0
    0.9500    1.4458    0.0000 C   0  0  0  0  0  0  0  0  0  0  0  0
   -0.2875    0.1875    0.0000 C   0  0  0  0  0  0  0  0  0  0  0  0
   -0.2250    1.5083    0.0000 C   0  0  0  0  0  0  0  0  0  0  0  0
   -0.8333    1.1958    0.0000 C   0  0  0  0  0  0  0  0  0  0  0  0
    1.5792    2.4375    0.0000 C   0  0  0  0  0  0  0  0  0  0  0  0
    2.7917    1.7750    0.0000 C   0  0  0  0  0  0  0  0  0  0  0  0
   -2.0500    0.5833    0.0000 C   0  0  0  0  0  0  0  0  0  0  0  0
   -2.0125    1.2583    0.0000 C   0  0  0  0  0  0  0  0  0  0  0  0
    2.1167    2.1083    0.0000 O   0  0  0  0  0  0  0  0  0  0  0  0
   -2.0708   -2.2417    0.0000 C   0  0  0  0  0  0  0  0  0  0  0  0
   -2.5833    1.6083    0.0000 C   0  0  0  0  0  0  0  0  0  0  0  0
    0.9542    2.1333    0.0000 O   0  0  0  0  0  0  0  0  0  0  0  0
   -1.4583    0.2500    0.0000 C   0  0  0  0  0  0  0  0  0  0  0  0
   -2.6625   -1.2042    0.0000 C   0  0  0  0  0  0  0  0  0  0  0  0
   -2.0708   -1.5542    0.0000 C   0  0  0  0  0  0  0  0  0  0  0  0
    2.8125    2.4583    0.0000 C   0  0  0  0  0  0  0  0  0  0  0  0
    2.2542    2.7833    0.0000 C   0  0  0  0  0  0  0  0  0  0  0  0
   -3.1833    1.3208    0.0000 C   0  0  0  0  0  0  0  0  0  0  0  0
   -2.6458    0.2958    0.0000 C   0  0  0  0  0  0  0  0  0  0  0  0
    0.8917    0.1333    0.0000 C   0  0  0  0  0  0  0  0  0  0  0  0
   -3.2458   -1.5625    0.0000 O   0  0  0  0  0  0  0  0  0  0  0  0
   -2.6500   -2.5667    0.0000 C   0  0  0  0  0  0  0  0  0  0  0  0
   -1.4000    1.5625    0.0000 C   0  0  0  0  0  0  0  0  0  0  0  0
    1.4750    0.4000    0.0000 C   0  0  0  0  0  0  0  0  0  0  0  0
   -3.2250    0.6458    0.0000 C   0  0  0  0  0  0  0  0  0  0  0  0
   -2.6625   -0.5292    0.0000 O   0  0  0  0  0  0  0  0  0  0  0  0
   -3.2458   -2.2417    0.0000 C   0  0  0  0  0  0  0  0  0  0  0  0
   -2.5583    2.2750    0.0000 C   0  0  0  0  0  0  0  0  0  0  0  0
    3.3750    2.8333    0.0000 N   0  0  0  0  0  0  0  0  0  0  0  0
   -0.3083   -0.4792    0.0000 O   0  0  0  0  0  0  0  0  0  0  0  0
   -0.2000    2.1833    0.0000 O   0  0  0  0  0  0  0  0  0  0  0  0
   -1.9708    2.5708    0.0000 O   0  0  0  0  0  0  0  0  0  0  0  0
   -1.7458   -2.7917    0.0000 O   0  0  0  0  0  0  0  0  0  0  0  0
    3.4167    1.5208    0.0000 O   0  0  0  0  0  0  0  0  0  0  0  0
   -3.8583    1.1000    0.0000 O   0  0  0  0  0  0  0  0  0  0  0  0
   -1.4833   -0.4167    0.0000 O   0  0  0  0  0  0  0  0  0  0  0  0
    2.3167    3.5208    0.0000 O   0  0  0  0  0  0  0  0  0  0  0  0
   -1.4833   -1.2167    0.0000 O   0  0  0  0  0  0  0  0  0  0  0  0
    2.5042    0.8208    0.0000 C   0  0  0  0  0  0  0  0  0  0  0  0
    0.8667   -0.5375    0.0000 O   0  0  0  0  0  0  0  0  0  0  0  0
   -2.6458   -3.2667    0.0000 O   0  0  0  0  0  0  0  0  0  0  0  0
   -1.4208   -1.9500    0.0000 C   0  0  0  0  0  0  0  0  0  0  0  0
   -3.1208    2.6458    0.0000 O   0  0  0  0  0  0  0  0  0  0  0  0
   -3.5208    1.9958    0.0000 C   0  0  0  0  0  0  0  0  0  0  0  0
   -3.8375   -2.5792    0.0000 C   0  0  0  0  0  0  0  0  0  0  0  0
    3.3250    3.4833    0.0000 C   0  0  0  0  0  0  0  0  0  0  0  0
    3.9375    2.5458    0.0000 C   0  0  0  0  0  0  0  0  0  0  0  0
   -0.9583   -2.7917    0.0000 C   0  0  0  0  0  0  0  0  0  0  0  0
   -0.8583   -1.4500    0.0000 C   0  0  0  0  0  0  0  0  0  0  0  0
   -2.0458   -3.5917    0.0000 C   0  0  0  0  0  0  0  0  0  0  0  0
   -3.0833    3.3000    0.0000 C   0  0  0  0  0  0  0  0  0  0  0  0
    1.2542    3.0458    0.0000 H   0  0  0  0  0  0  0  0  0  0  0  0
  2  6  1  0
  3  7  1  0
  4 25  1  0
  5  1  1  0
  6  5  2  0
  7  4  1  0
  8  2  1  0
  9  8  1  0
 10 14  1  0
 11  1  1  0
 12 18  2  0
 13 28  2  0
 14  1  1  0
 15 20  1  0
 16 13  1  0
 17 10  1  0
 18  3  1  0
 19 31  1  0
 20 19  1  0
 21 11  1  0
 22 10  1  0
 23 16  1  0
 24 12  1  0
 25 29  2  0
 19 26  1  1
 27 32  1  0
 28  9  1  0
 29  5  1  0
 30 24  1  0
 24 31  1  1
 32 26  1  0
 16 33  1  6
 21 34  1  6
 35  7  2  0
 36  8  2  0
 37 33  2  0
 15 38  1  6
 11 39  1  1
 23 40  1  6
 41 18  1  0
 22 42  1  1
 20 43  1  6
  1 44  1  6
 45 25  1  0
 27 46  1  1
 15 47  1  1
 48 33  1  0
 49 23  1  0
 32 50  1  6
 51 34  1  0
 52 34  1  0
 53 38  1  0
 54 43  1  0
 55 46  1  0
 56 48  1  0
 10 57  1  6
 21 22  1  0
  6 17  1  0
  2  4  2  0
  9  3  2  0
 13 12  1  0
 23 30  1  0
 15 27  1  0
M  END
> <chembl_id>
CHEMBL504459

> <chembl_pref_name>
NOGALAMYCIN

$$$$
CHEMBL398463
     RDKit          2D

 29 30  0  0  0  0  0  0  0  0999 V2000
   12.3707  -17.4396    0.0000 N   0  0  0  0  0  0  0  0  0  0  0  0
   11.7255  -17.9411    0.0000 C   0  0  0  0  0  0  0  0  0  0  0  0
   13.6134  -16.9837    0.0000 C   0  0  0  0  0  0  0  0  0  0  0  0
   13.1535  -17.6654    0.0000 N   0  0  0  0  0  0  0  0  0  0  0  0
   13.1003  -16.3370    0.0000 N   0  0  0  0  0  0  0  0  0  0  0  0
   11.4654  -18.7211    0.0000 C   0  0  0  0  0  0  0  0  0  0  0  0
   11.0692  -17.4582    0.0000 O   0  0  0  0  0  0  0  0  0  0  0  0
   12.3386  -16.6260    0.0000 C   0  0  0  0  0  0  0  0  0  0  0  0
   10.6482  -18.7170    0.0000 C   0  0  0  0  0  0  0  0  0  0  0  0
   10.4006  -17.9369    0.0000 C   0  0  0  0  0  0  0  0  0  0  0  0
   14.4281  -16.9499    0.0000 C   0  0  0  0  0  0  0  0  0  0  0  0
   14.8085  -16.2267    0.0000 O   0  0  0  0  0  0  0  0  0  0  0  0
   11.9442  -19.3856    0.0000 O   0  0  0  0  0  0  0  0  0  0  0  0
   14.8661  -17.6420    0.0000 N   0  0  0  0  0  0  0  0  0  0  0  0
   10.1654  -19.3732    0.0000 O   0  0  0  0  0  0  0  0  0  0  0  0
    9.6943  -17.5088    0.0000 C   0  0  0  0  0  0  0  0  0  0  0  0
    8.9421  -17.8421    0.0000 O   0  0  0  0  0  0  0  0  0  0  0  0
    8.2482  -17.4105    0.0000 P   0  0  0  0  0  0  0  0  0  0  0  0
    8.2750  -16.5938    0.0000 O   0  0  0  0  0  0  0  0  0  0  0  0
    7.5363  -17.8221    0.0000 O   0  0  0  0  0  0  0  0  0  0  0  0
    8.2371  -18.2256    0.0000 O   0  0  0  0  0  0  0  0  0  0  0  0
    6.8282  -17.4142    0.0000 P   0  0  0  0  0  0  0  0  0  0  0  0
    6.1209  -17.8235    0.0000 O   0  0  0  0  0  0  0  0  0  0  0  0
    7.2275  -16.6999    0.0000 O   0  0  0  0  0  0  0  0  0  0  0  0
    6.2385  -16.8394    0.0000 O   0  0  0  0  0  0  0  0  0  0  0  0
    5.4128  -17.4156    0.0000 P   0  0  0  0  0  0  0  0  0  0  0  0
    4.7055  -17.8249    0.0000 O   0  0  0  0  0  0  0  0  0  0  0  0
    5.6136  -16.6219    0.0000 O   0  0  0  0  0  0  0  0  0  0  0  0
    4.8257  -16.8387    0.0000 O   0  0  0  0  0  0  0  0  0  0  0  0
  2  1  1  1
  3  4  2  0
  4  1  1  0
  5  8  2  0
  6  2  1  0
  7  2  1  0
  8  1  1  0
  9  6  1  0
 10  7  1  0
 11  3  1  0
 12 11  2  0
  6 13  1  6
 14 11  1  0
  9 15  1  6
 10 16  1  1
 17 16  1  0
  3  5  1  0
 10  9  1  0
 17 18  1  0
 18 19  2  0
 18 20  1  0
 18 21  1  0
 20 22  1  0
 22 23  1  0
 22 24  2  0
 22 25  1  0
 23 26  1  0
 26 27  1  0
 26 28  2  0
 26 29  1  0
M  END
> <chembl_id>
CHEMBL398463

> <chembl_pref_name>
RTP

$$$$
CHEMBL3103514
     RDKit          2D

 32 36  0  0  0  0  0  0  0  0999 V2000
   10.0529  -10.1711    0.0000 C   0  0  0  0  0  0  0  0  0  0  0  0
   10.0518  -10.9992    0.0000 C   0  0  0  0  0  0  0  0  0  0  0  0
   10.7672  -11.4124    0.0000 C   0  0  0  0  0  0  0  0  0  0  0  0
   10.7654   -9.7580    0.0000 C   0  0  0  0  0  0  0  0  0  0  0  0
   11.4814  -10.1675    0.0000 C   0  0  0  0  0  0  0  0  0  0  0  0
   11.4816  -10.9992    0.0000 C   0  0  0  0  0  0  0  0  0  0  0  0
   12.2729  -11.2560    0.0000 O   0  0  0  0  0  0  0  0  0  0  0  0
   12.7616  -10.5830    0.0000 C   0  0  0  0  0  0  0  0  0  0  0  0
   12.2725   -9.9103    0.0000 N   0  0  0  0  0  0  0  0  0  0  0  0
   13.5840  -10.5813    0.0000 C   0  0  0  0  0  0  0  0  0  0  0  0
   13.9965  -11.2978    0.0000 C   0  0  0  0  0  0  0  0  0  0  0  0
   14.8214  -11.2978    0.0000 C   0  0  0  0  0  0  0  0  0  0  0  0
   13.9938   -9.8684    0.0000 C   0  0  0  0  0  0  0  0  0  0  0  0
   10.7626   -8.9285    0.0000 C   0  0  0  0  0  0  0  0  0  0  0  0
   11.4763   -8.5136    0.0000 O   0  0  0  0  0  0  0  0  0  0  0  0
   10.0461   -8.5178    0.0000 O   0  0  0  0  0  0  0  0  0  0  0  0
   10.0437   -7.6921    0.0000 C   0  0  0  0  0  0  0  0  0  0  0  0
   13.5796   -9.1540    0.0000 O   0  0  0  0  0  0  0  0  0  0  0  0
   14.8167   -9.8670    0.0000 C   0  0  0  0  0  0  0  0  0  0  0  0
   15.2297  -10.5804    0.0000 C   0  0  0  0  0  0  0  0  0  0  0  0
   16.0521  -10.5785    0.0000 C   0  0  0  0  0  0  0  0  0  0  0  0
   16.4626   -9.8639    0.0000 C   0  0  0  0  0  0  0  0  0  0  0  0
   16.0446   -9.1497    0.0000 C   0  0  0  0  0  0  0  0  0  0  0  0
   15.2235   -9.1552    0.0000 C   0  0  0  0  0  0  0  0  0  0  0  0
   16.4666  -11.2926    0.0000 O   0  0  0  0  0  0  0  0  0  0  0  0
   16.0553  -12.0086    0.0000 C   0  0  0  0  0  0  0  0  0  0  0  0
   16.4698  -12.7227    0.0000 C   0  0  0  0  0  0  0  0  0  0  0  0
   16.0560  -13.4344    0.0000 C   0  0  0  0  0  0  0  0  0  0  0  0
   16.4698  -14.1481    0.0000 C   0  0  0  0  0  0  0  0  0  0  0  0
   17.2964  -14.1467    0.0000 C   0  0  0  0  0  0  0  0  0  0  0  0
   17.7075  -13.4257    0.0000 C   0  0  0  0  0  0  0  0  0  0  0  0
   17.2913  -12.7149    0.0000 C   0  0  0  0  0  0  0  0  0  0  0  0
  1  2  2  0
  2  3  1  0
  3  6  2  0
  5  4  2  0
  4  1  1  0
  5  6  1  0
  6  7  1  0
  7  8  1  0
  8  9  2  0
  9  5  1  0
 10 11  2  0
 11 12  1  0
 12 20  2  0
 13 10  1  0
  8 10  1  0
 13 19  2  0
 14 15  2  0
 14 16  1  0
  4 14  1  0
 16 17  1  0
 13 18  1  0
 19 20  1  0
 20 21  1  0
 21 22  2  0
 22 23  1  0
 23 24  2  0
 24 19  1  0
 21 25  1  0
 25 26  1  0
 26 27  1  0
 27 28  2  0
 28 29  1  0
 29 30  2  0
 30 31  1  0
 31 32  2  0
 32 27  1  0
M  END
> <chembl_id>
CHEMBL3103514

> <chembl_pref_name>
None

$$$$
CHEMBL1399109
     RDKit          2D

 20 22  0  0  0  0  0  0  0  0999 V2000
   -1.6010    3.6835    0.0000 Cl  0  0  0  0  0  0  0  0  0  0  0  0
    0.4954    0.7235    0.0000 S   0  0  0  0  0  0  0  0  0  0  0  0
    0.4704   -1.5131    0.0000 O   0  0  0  0  0  0  0  0  0  0  0  0
   -1.8945   -0.7285    0.0000 O   0  0  0  0  0  0  0  0  0  0  0  0
   -1.6010    2.0335    0.0000 O   0  0  0  0  0  0  0  0  0  0  0  0
   -0.8395    0.7235    0.0000 N   0  0  0  0  0  0  0  0  0  0  0  0
   -0.1721    2.0335    0.0000 N   0  0  0  0  0  0  0  0  0  0  0  0
    0.2404   -0.0611    0.0000 C   0  0  0  0  0  0  0  0  0  0  0  0
   -0.5846   -0.0611    0.0000 C   0  0  0  0  0  0  0  0  0  0  0  0
   -0.1721    1.2085    0.0000 C   0  0  0  0  0  0  0  0  0  0  0  0
    0.7254   -0.7285    0.0000 C   0  0  0  0  0  0  0  0  0  0  0  0
   -1.0695   -0.7285    0.0000 C   0  0  0  0  0  0  0  0  0  0  0  0
    1.5504   -0.7285    0.0000 C   0  0  0  0  0  0  0  0  0  0  0  0
   -0.8145   -1.5131    0.0000 C   0  0  0  0  0  0  0  0  0  0  0  0
   -0.8865    2.4460    0.0000 C   0  0  0  0  0  0  0  0  0  0  0  0
    1.1379   -1.9981    0.0000 C   0  0  0  0  0  0  0  0  0  0  0  0
    1.8053   -1.5131    0.0000 C   0  0  0  0  0  0  0  0  0  0  0  0
   -2.1494   -1.5131    0.0000 C   0  0  0  0  0  0  0  0  0  0  0  0
   -1.4820   -1.9981    0.0000 C   0  0  0  0  0  0  0  0  0  0  0  0
   -0.8865    3.2710    0.0000 C   0  0  0  0  0  0  0  0  0  0  0  0
  1 20  1  0
  2  8  1  0
  2 10  1  0
  3 11  1  0
  3 16  1  0
  4 12  1  0
  4 18  1  0
  5 15  2  0
  6  9  1  0
  6 10  2  0
  7 10  1  0
  7 15  1  0
  8  9  2  0
  8 11  1  0
  9 12  1  0
 11 13  2  0
 12 14  2  0
 13 17  1  0
 14 19  1  0
 15 20  1  0
 16 17  2  0
 18 19  2  0
M  END
> <chembl_id>
CHEMBL1399109

> <chembl_pref_name>
None

$$$$
CHEMBL440665
     RDKit          2D

 42 48  0  0  0  0  0  0  0  0999 V2000
    1.3167   -2.1292    0.0000 C   0  0  0  0  0  0  0  0  0  0  0  0
   11.2792   -6.3167    0.0000 C   0  0  0  0  0  0  0  0  0  0  0  0
    0.6000   -2.5417    0.0000 N   0  0  0  0  0  0  0  0  0  0  0  0
   11.2792   -7.0375    0.0000 N   0  0  0  0  0  0  0  0  0  0  0  0
    1.3250   -1.3042    0.0000 N   0  0  0  0  0  0  0  0  0  0  0  0
   11.9042   -5.9542    0.0000 N   0  0  0  0  0  0  0  0  0  0  0  0
    7.7167   -5.0625    0.0000 C   0  0  0  0  0  0  0  0  0  0  0  0
    4.8750   -3.3917    0.0000 C   0  0  0  0  0  0  0  0  0  0  0  0
   -0.1083   -1.3042    0.0000 C   0  0  0  0  0  0  0  0  0  0  0  0
   12.5167   -7.0417    0.0000 C   0  0  0  0  0  0  0  0  0  0  0  0
   12.5250   -6.3292    0.0000 C   0  0  0  0  0  0  0  0  0  0  0  0
    0.6042   -0.8917    0.0000 C   0  0  0  0  0  0  0  0  0  0  0  0
    8.4292   -4.6542    0.0000 N   0  0  0  0  0  0  0  0  0  0  0  0
    4.1542   -3.8042    0.0000 N   0  0  0  0  0  0  0  0  0  0  0  0
   10.5667   -5.9042    0.0000 C   0  0  0  0  0  0  0  0  0  0  0  0
    2.0250   -2.5500    0.0000 C   0  0  0  0  0  0  0  0  0  0  0  0
    5.5875   -3.8125    0.0000 C   0  0  0  0  0  0  0  0  0  0  0  0
    7.0042   -4.6417    0.0000 C   0  0  0  0  0  0  0  0  0  0  0  0
    7.7125   -5.8875    0.0000 O   0  0  0  0  0  0  0  0  0  0  0  0
    4.8792   -2.5667    0.0000 O   0  0  0  0  0  0  0  0  0  0  0  0
    5.5792   -4.6375    0.0000 C   0  0  0  0  0  0  0  0  0  0  0  0
    7.0042   -3.8167    0.0000 C   0  0  0  0  0  0  0  0  0  0  0  0
    6.2917   -3.4042    0.0000 C   0  0  0  0  0  0  0  0  0  0  0  0
    6.2875   -5.0542    0.0000 C   0  0  0  0  0  0  0  0  0  0  0  0
    9.8542   -6.3125    0.0000 C   0  0  0  0  0  0  0  0  0  0  0  0
    2.0167   -3.3750    0.0000 C   0  0  0  0  0  0  0  0  0  0  0  0
   10.5667   -5.0667    0.0000 C   0  0  0  0  0  0  0  0  0  0  0  0
    2.7417   -2.1417    0.0000 C   0  0  0  0  0  0  0  0  0  0  0  0
    3.4417   -3.3792    0.0000 C   0  0  0  0  0  0  0  0  0  0  0  0
    9.1417   -5.0667    0.0000 C   0  0  0  0  0  0  0  0  0  0  0  0
    3.4500   -2.5542    0.0000 C   0  0  0  0  0  0  0  0  0  0  0  0
    9.1417   -5.8917    0.0000 C   0  0  0  0  0  0  0  0  0  0  0  0
    9.8542   -4.6625    0.0000 C   0  0  0  0  0  0  0  0  0  0  0  0
    2.7292   -3.7917    0.0000 C   0  0  0  0  0  0  0  0  0  0  0  0
   -0.8208   -0.8917    0.0000 C   0  0  0  0  0  0  0  0  0  0  0  0
   13.1375   -7.4042    0.0000 C   0  0  0  0  0  0  0  0  0  0  0  0
    0.6042   -0.0667    0.0000 C   0  0  0  0  0  0  0  0  0  0  0  0
   13.1417   -5.9750    0.0000 C   0  0  0  0  0  0  0  0  0  0  0  0
   -0.8208   -0.0667    0.0000 C   0  0  0  0  0  0  0  0  0  0  0  0
   13.7625   -7.0500    0.0000 C   0  0  0  0  0  0  0  0  0  0  0  0
   13.7625   -6.3292    0.0000 C   0  0  0  0  0  0  0  0  0  0  0  0
   -0.1083    0.3458    0.0000 C   0  0  0  0  0  0  0  0  0  0  0  0
  2 15  1  0
  3  1  2  0
  4  2  2  0
  5  1  1  0
  6  2  1  0
  7 18  1  0
  8 14  1  0
  9  3  1  0
 10  4  1  0
 11  6  1  0
 12  5  1  0
 13  7  1  0
 14 29  1  0
 15 27  1  0
 16  1  1  0
 17  8  1  0
 18 22  1  0
 19  7  2  0
 20  8  2  0
 21 17  2  0
 22 23  2  0
 23 17  1  0
 24 21  1  0
 25 32  1  0
 26 16  2  0
 27 33  2  0
 28 16  1  0
 29 31  1  0
 30 13  1  0
 31 28  2  0
 32 30  2  0
 33 30  1  0
 34 26  1  0
 35  9  1  0
 36 10  1  0
 37 12  1  0
 38 11  1  0
 39 35  2  0
 40 36  2  0
 41 38  2  0
 42 37  2  0
 12  9  2  0
 34 29  2  0
 42 39  1  0
 24 18  2  0
 25 15  2  0
 11 10  2  0
 40 41  1  0
M  END
> <chembl_id>
CHEMBL440665

> <chembl_pref_name>
None

$$$$
CHEMBL1381419
     RDKit          2D

 29 33  0  0  0  0  0  0  0  0999 V2000
   -3.5532    1.5100    0.0000 S   0  0  0  0  0  0  0  0  0  0  0  0
   -5.3480    1.5100    0.0000 O   0  0  0  0  0  0  0  0  0  0  0  0
   -0.6251    1.6675    0.0000 O   0  0  0  0  0  0  0  0  0  0  0  0
   -2.7686    0.4300    0.0000 N   0  0  0  0  0  0  0  0  0  0  0  0
   -3.5532    0.1751    0.0000 N   0  0  0  0  0  0  0  0  0  0  0  0
   -2.0541    1.6675    0.0000 N   0  0  0  0  0  0  0  0  0  0  0  0
    0.0423   -1.2924    0.0000 N   0  0  0  0  0  0  0  0  0  0  0  0
   -2.0541   -0.8075    0.0000 N   0  0  0  0  0  0  0  0  0  0  0  0
   -2.7686    1.2550    0.0000 C   0  0  0  0  0  0  0  0  0  0  0  0
   -2.0541    0.0175    0.0000 C   0  0  0  0  0  0  0  0  0  0  0  0
   -1.3396    0.4300    0.0000 C   0  0  0  0  0  0  0  0  0  0  0  0
   -4.0381    0.8425    0.0000 C   0  0  0  0  0  0  0  0  0  0  0  0
   -1.3396    1.2550    0.0000 C   0  0  0  0  0  0  0  0  0  0  0  0
   -4.8631    0.8425    0.0000 C   0  0  0  0  0  0  0  0  0  0  0  0
   -0.6251    0.0175    0.0000 C   0  0  0  0  0  0  0  0  0  0  0  0
   -0.6251   -0.8075    0.0000 C   0  0  0  0  0  0  0  0  0  0  0  0
    0.8269   -1.0375    0.0000 C   0  0  0  0  0  0  0  0  0  0  0  0
   -5.3480    0.1751    0.0000 C   0  0  0  0  0  0  0  0  0  0  0  0
   -1.2926   -1.2924    0.0000 C   0  0  0  0  0  0  0  0  0  0  0  0
   -0.2126   -2.0770    0.0000 C   0  0  0  0  0  0  0  0  0  0  0  0
   -1.0376   -2.0770    0.0000 C   0  0  0  0  0  0  0  0  0  0  0  0
   -6.1326    1.2550    0.0000 C   0  0  0  0  0  0  0  0  0  0  0  0
   -6.1326    0.4300    0.0000 C   0  0  0  0  0  0  0  0  0  0  0  0
    0.9984   -0.2305    0.0000 C   0  0  0  0  0  0  0  0  0  0  0  0
    1.4400   -1.5895    0.0000 C   0  0  0  0  0  0  0  0  0  0  0  0
    1.7831    0.0244    0.0000 C   0  0  0  0  0  0  0  0  0  0  0  0
    2.2246   -1.3346    0.0000 C   0  0  0  0  0  0  0  0  0  0  0  0
    2.3962   -0.5276    0.0000 C   0  0  0  0  0  0  0  0  0  0  0  0
    3.1808   -0.2726    0.0000 C   0  0  0  0  0  0  0  0  0  0  0  0
  1  9  1  0
  1 12  1  0
  2 14  1  0
  2 22  1  0
  3 13  2  0
  4  5  1  0
  4  9  1  0
 10  4  1  0
  5 12  2  0
  6  9  2  0
  6 13  1  0
  7 16  1  0
  7 17  1  0
  7 20  1  0
  8 10  2  0
 10 11  1  0
 11 13  1  0
 11 15  2  0
 12 14  1  0
 14 18  2  0
 15 16  1  0
 16 19  2  0
 17 24  2  0
 17 25  1  0
 18 23  1  0
 19 21  1  0
 20 21  2  0
 22 23  2  0
 24 26  1  0
 25 27  2  0
 26 28  2  0
 27 28  1  0
 28 29  1  0
M  END
> <chembl_id>
CHEMBL1381419

> <chembl_pref_name>
None

$$$$
CHEMBL455575
     RDKit          2D

 32 35  0  0  0  0  0  0  0  0999 V2000
   10.5750  -19.5708    0.0000 C   0  0  0  0  0  0  0  0  0  0  0  0
   11.4000  -19.5708    0.0000 C   0  0  0  0  0  0  0  0  0  0  0  0
   12.2250  -19.5708    0.0000 C   0  0  0  0  0  0  0  0  0  0  0  0
   11.4000  -18.7458    0.0000 C   0  0  0  0  0  0  0  0  0  0  0  0
   11.4000  -20.3958    0.0000 C   0  0  0  0  0  0  0  0  0  0  0  0
   12.6356  -20.2876    0.0000 C   0  0  0  0  0  0  0  0  0  0  0  0
   13.4599  -20.2880    0.0000 C   0  0  0  0  0  0  0  0  0  0  0  0
   13.8732  -19.5730    0.0000 C   0  0  0  0  0  0  0  0  0  0  0  0
   13.4563  -18.8561    0.0000 C   0  0  0  0  0  0  0  0  0  0  0  0
   12.6334  -18.8593    0.0000 C   0  0  0  0  0  0  0  0  0  0  0  0
   12.1168  -18.3352    0.0000 C   0  0  0  0  0  0  0  0  0  0  0  0
   12.1171  -17.5110    0.0000 C   0  0  0  0  0  0  0  0  0  0  0  0
   11.4021  -17.0976    0.0000 C   0  0  0  0  0  0  0  0  0  0  0  0
   10.6853  -17.5146    0.0000 C   0  0  0  0  0  0  0  0  0  0  0  0
   10.6885  -18.3374    0.0000 C   0  0  0  0  0  0  0  0  0  0  0  0
   10.1644  -18.8540    0.0000 C   0  0  0  0  0  0  0  0  0  0  0  0
    9.3401  -18.8537    0.0000 C   0  0  0  0  0  0  0  0  0  0  0  0
    8.9268  -19.5687    0.0000 C   0  0  0  0  0  0  0  0  0  0  0  0
    9.3437  -20.2855    0.0000 C   0  0  0  0  0  0  0  0  0  0  0  0
   10.1666  -20.2824    0.0000 C   0  0  0  0  0  0  0  0  0  0  0  0
    8.1018  -19.5698    0.0000 O   0  0  0  0  0  0  0  0  0  0  0  0
   11.4010  -16.2726    0.0000 O   0  0  0  0  0  0  0  0  0  0  0  0
   14.6982  -19.5719    0.0000 C   0  0  0  0  0  0  0  0  0  0  0  0
   15.5208  -19.5708    0.0000 C   0  0  0  0  0  0  0  0  0  0  0  0
   14.6971  -18.7469    0.0000 C   0  0  0  0  0  0  0  0  0  0  0  0
   14.7016  -20.3969    0.0000 C   0  0  0  0  0  0  0  0  0  0  0  0
   15.4131  -18.3369    0.0000 C   0  0  0  0  0  0  0  0  0  0  0  0
   15.4124  -17.5127    0.0000 C   0  0  0  0  0  0  0  0  0  0  0  0
   14.6969  -17.1003    0.0000 C   0  0  0  0  0  0  0  0  0  0  0  0
   13.9806  -17.5182    0.0000 C   0  0  0  0  0  0  0  0  0  0  0  0
   13.9848  -18.3410    0.0000 C   0  0  0  0  0  0  0  0  0  0  0  0
   14.6947  -16.2753    0.0000 O   0  0  0  0  0  0  0  0  0  0  0  0
  7  8  2  0
  1 16  2  0
 16 17  1  0
  8  9  1  0
 17 18  2  0
  2  5  1  0
 18 19  1  0
  9 10  2  0
 19 20  2  0
 20  1  1  0
 10  3  1  0
 18 21  1  0
  2  3  1  0
 13 22  1  0
  4 11  2  0
  8 23  1  0
  3  6  2  0
 23 24  1  0
 11 12  1  0
 23 25  1  0
  1  2  1  0
 23 26  1  0
 12 13  2  0
 25 27  2  0
  6  7  1  0
 27 28  1  0
 13 14  1  0
 28 29  2  0
  2  4  1  0
 29 30  1  0
 14 15  2  0
 30 31  2  0
 31 25  1  0
 15  4  1  0
 29 32  1  0
M  END
> <chembl_id>
CHEMBL455575

> <chembl_pref_name>
None

$$$$
CHEMBL1481914
     RDKit          2D

 34 39  0  0  0  0  0  0  0  0999 V2000
   -1.9444    0.0301    0.0000 S   0  0  0  0  0  0  0  0  0  0  0  0
   -1.0575   -2.0234    0.0000 O   0  0  0  0  0  0  0  0  0  0  0  0
   -3.5371   -2.2685    0.0000 O   0  0  0  0  0  0  0  0  0  0  0  0
   -7.9941    2.7872    0.0000 O   0  0  0  0  0  0  0  0  0  0  0  0
   -4.2110    3.9297    0.0000 O   0  0  0  0  0  0  0  0  0  0  0  0
   -4.3923    0.3741    0.0000 O   0  0  0  0  0  0  0  0  0  0  0  0
   -7.9941    4.4372    0.0000 O   0  0  0  0  0  0  0  0  0  0  0  0
   -5.1362    2.7872    0.0000 N   0  0  0  0  0  0  0  0  0  0  0  0
   -3.1639   -0.5129    0.0000 N   0  0  0  0  0  0  0  0  0  0  0  0
   -3.0869    0.9553    0.0000 N   0  0  0  0  0  0  0  0  0  0  0  0
   -1.8582   -0.7904    0.0000 C   0  0  0  0  0  0  0  0  0  0  0  0
   -2.6118   -1.1260    0.0000 C   0  0  0  0  0  0  0  0  0  0  0  0
   -2.7514    0.2016    0.0000 C   0  0  0  0  0  0  0  0  0  0  0  0
   -1.1437   -1.2029    0.0000 C   0  0  0  0  0  0  0  0  0  0  0  0
   -2.7834   -1.9329    0.0000 C   0  0  0  0  0  0  0  0  0  0  0  0
   -4.2430    1.7952    0.0000 C   0  0  0  0  0  0  0  0  0  0  0  0
   -5.8507    3.1997    0.0000 C   0  0  0  0  0  0  0  0  0  0  0  0
   -4.3825    3.1228    0.0000 C   0  0  0  0  0  0  0  0  0  0  0  0
   -3.9074    1.0415    0.0000 C   0  0  0  0  0  0  0  0  0  0  0  0
   -5.0500    1.9667    0.0000 C   0  0  0  0  0  0  0  0  0  0  0  0
   -3.8305    2.5097    0.0000 C   0  0  0  0  0  0  0  0  0  0  0  0
   -7.2796    3.1997    0.0000 C   0  0  0  0  0  0  0  0  0  0  0  0
   -6.5651    2.7872    0.0000 C   0  0  0  0  0  0  0  0  0  0  0  0
   -7.2796    4.0247    0.0000 C   0  0  0  0  0  0  0  0  0  0  0  0
   -5.8507    4.0247    0.0000 C   0  0  0  0  0  0  0  0  0  0  0  0
   -0.3900   -0.8673    0.0000 C   0  0  0  0  0  0  0  0  0  0  0  0
   -2.2313   -2.5460    0.0000 C   0  0  0  0  0  0  0  0  0  0  0  0
   -6.5651    4.4372    0.0000 C   0  0  0  0  0  0  0  0  0  0  0  0
   -0.2505   -2.1949    0.0000 C   0  0  0  0  0  0  0  0  0  0  0  0
    0.1620   -1.4804    0.0000 C   0  0  0  0  0  0  0  0  0  0  0  0
   -3.4508   -3.0890    0.0000 C   0  0  0  0  0  0  0  0  0  0  0  0
   -2.6438   -3.2605    0.0000 C   0  0  0  0  0  0  0  0  0  0  0  0
   -8.7085    3.1997    0.0000 C   0  0  0  0  0  0  0  0  0  0  0  0
   -8.7085    4.0247    0.0000 C   0  0  0  0  0  0  0  0  0  0  0  0
  1 11  1  0
  1 13  1  0
  2 14  1  0
  2 29  1  0
  3 15  1  0
  3 31  1  0
  4 22  1  0
  4 33  1  0
  5 18  2  0
  6 19  2  0
  7 24  1  0
  7 34  1  0
  8 17  1  0
  8 18  1  0
  8 20  1  0
  9 12  1  0
  9 13  2  0
 10 13  1  0
 10 19  1  0
 11 12  2  0
 11 14  1  0
 12 15  1  0
 14 26  2  0
 15 27  2  0
 16 19  1  0
 16 20  1  0
 16 21  1  0
 17 23  1  0
 17 25  2  0
 18 21  1  0
 22 23  2  0
 22 24  1  0
 24 28  2  0
 25 28  1  0
 26 30  1  0
 27 32  1  0
 29 30  2  0
 31 32  2  0
 33 34  1  0
M  END
> <chembl_id>
CHEMBL1481914

> <chembl_pref_name>
None

$$$$
CHEMBL3892780
     RDKit          2D

 25 28  0  0  0  0  0  0  0  0999 V2000
   14.9351   -7.6522    0.0000 C   0  0  0  0  0  0  0  0  0  0  0  0
   14.9439   -8.4693    0.0000 C   0  0  0  0  0  0  0  0  0  0  0  0
   15.6533   -8.8744    0.0000 C   0  0  0  0  0  0  0  0  0  0  0  0
   16.3579   -8.4623    0.0000 C   0  0  0  0  0  0  0  0  0  0  0  0
   16.3533   -7.6452    0.0000 C   0  0  0  0  0  0  0  0  0  0  0  0
   15.6398   -7.2401    0.0000 C   0  0  0  0  0  0  0  0  0  0  0  0
   14.2258   -7.2512    0.0000 O   0  0  0  0  0  0  0  0  0  0  0  0
   17.0673   -8.8633    0.0000 O   0  0  0  0  0  0  0  0  0  0  0  0
   14.2351   -8.8855    0.0000 C   0  0  0  0  0  0  0  0  0  0  0  0
   13.5258   -8.4804    0.0000 C   0  0  0  0  0  0  0  0  0  0  0  0
   14.2439   -9.7027    0.0000 N   0  0  0  0  0  0  0  0  0  0  0  0
   13.5393  -10.1148    0.0000 N   0  0  0  0  0  0  0  0  0  0  0  0
   14.2621  -12.1542    0.0000 C   0  0  0  0  0  0  0  0  0  0  0  0
   13.5574  -12.5662    0.0000 N   0  0  0  0  0  0  0  0  0  0  0  0
   12.8440  -12.1653    0.0000 C   0  0  0  0  0  0  0  0  0  0  0  0
   12.8393  -11.3481    0.0000 C   0  0  0  0  0  0  0  0  0  0  0  0
   13.5439  -10.9319    0.0000 C   0  0  0  0  0  0  0  0  0  0  0  0
   14.2533  -11.3370    0.0000 N   0  0  0  0  0  0  0  0  0  0  0  0
   12.0594  -11.0977    0.0000 C   0  0  0  0  0  0  0  0  0  0  0  0
   11.5864  -11.7661    0.0000 C   0  0  0  0  0  0  0  0  0  0  0  0
   12.0695  -12.4200    0.0000 S   0  0  0  0  0  0  0  0  0  0  0  0
   10.7709  -11.6826    0.0000 C   0  0  0  0  0  0  0  0  0  0  0  0
   10.4326  -10.9389    0.0000 C   0  0  0  0  0  0  0  0  0  0  0  0
   10.9098  -10.2746    0.0000 C   0  0  0  0  0  0  0  0  0  0  0  0
   11.7252  -10.3540    0.0000 C   0  0  0  0  0  0  0  0  0  0  0  0
  1  2  1  0
  2  3  2  0
  3  4  1  0
  4  5  2  0
  5  6  1  0
  1  6  2  0
  1  7  1  0
  4  8  1  0
  9 10  1  0
 11 12  1  0
 13 14  1  0
 14 15  2  0
 15 16  1  0
 16 17  2  0
 17 18  1  0
 13 18  2  0
 19 20  2  0
 20 21  1  0
 22 23  1  0
 23 24  1  0
 24 25  1  0
 19 25  1  0
 20 22  1  0
 15 21  1  0
 16 19  1  0
 12 17  1  0
  9 11  2  0
  2  9  1  0
M  END
> <chembl_id>
CHEMBL3892780

> <chembl_pref_name>
None

$$$$
CHEMBL1587683
     RDKit          2D

 34 38  0  0  0  0  0  0  0  0999 V2000
    4.4583   -0.9879    0.0000 O   0  0  0  0  0  0  0  0  0  0  0  0
    3.8784   -1.9601    0.0000 O   0  0  0  0  0  0  0  0  0  0  0  0
    2.5445   -3.1611    0.0000 O   0  0  0  0  0  0  0  0  0  0  0  0
    2.7358    0.3940    0.0000 O   0  0  0  0  0  0  0  0  0  0  0  0
   -0.3374   -2.4032    0.0000 O   0  0  0  0  0  0  0  0  0  0  0  0
    0.3014   -1.4642    0.0000 O   0  0  0  0  0  0  0  0  0  0  0  0
    1.3212    1.6742    0.0000 O   0  0  0  0  0  0  0  0  0  0  0  0
    1.7438   -1.9282    0.0000 N   0  0  0  0  0  0  0  0  0  0  0  0
    0.2757   -1.8512    0.0000 N   0  0  0  0  0  0  0  0  0  0  0  0
    1.9153   -1.1212    0.0000 C   0  0  0  0  0  0  0  0  0  0  0  0
    2.7358   -1.0349    0.0000 C   0  0  0  0  0  0  0  0  0  0  0  0
    3.0714   -1.7886    0.0000 C   0  0  0  0  0  0  0  0  0  0  0  0
    2.4583   -2.3407    0.0000 C   0  0  0  0  0  0  0  0  0  0  0  0
    1.3633   -0.5081    0.0000 C   0  0  0  0  0  0  0  0  0  0  0  0
    3.1483   -0.3205    0.0000 C   0  0  0  0  0  0  0  0  0  0  0  0
    0.9901   -2.2637    0.0000 C   0  0  0  0  0  0  0  0  0  0  0  0
    3.9733   -0.3205    0.0000 C   0  0  0  0  0  0  0  0  0  0  0  0
    0.5563   -0.6796    0.0000 C   0  0  0  0  0  0  0  0  0  0  0  0
    1.6183    0.2765    0.0000 C   0  0  0  0  0  0  0  0  0  0  0  0
    0.8186   -3.0707    0.0000 C   0  0  0  0  0  0  0  0  0  0  0  0
    4.4583    0.3470    0.0000 C   0  0  0  0  0  0  0  0  0  0  0  0
    5.2429   -0.7330    0.0000 C   0  0  0  0  0  0  0  0  0  0  0  0
    5.2429    0.0920    0.0000 C   0  0  0  0  0  0  0  0  0  0  0  0
    1.0662    0.8896    0.0000 C   0  0  0  0  0  0  0  0  0  0  0  0
   -0.0019   -3.1569    0.0000 C   0  0  0  0  0  0  0  0  0  0  0  0
    0.0043   -0.0665    0.0000 C   0  0  0  0  0  0  0  0  0  0  0  0
    0.2593    0.7181    0.0000 C   0  0  0  0  0  0  0  0  0  0  0  0
    5.9573   -1.1455    0.0000 C   0  0  0  0  0  0  0  0  0  0  0  0
    5.9573    0.5045    0.0000 C   0  0  0  0  0  0  0  0  0  0  0  0
    6.6718   -0.7330    0.0000 C   0  0  0  0  0  0  0  0  0  0  0  0
    6.6718    0.0920    0.0000 C   0  0  0  0  0  0  0  0  0  0  0  0
   -0.4144   -3.8714    0.0000 C   0  0  0  0  0  0  0  0  0  0  0  0
   -0.5056   -1.6358    0.0000 C   0  0  0  0  0  0  0  0  0  0  0  0
    0.7691    2.2873    0.0000 C   0  0  0  0  0  0  0  0  0  0  0  0
  1 17  1  0
  1 22  1  0
  2 12  1  0
  3 13  2  0
  4 15  2  0
  5  9  1  0
  5 25  1  0
  6 18  1  0
  6 33  1  0
  7 24  1  0
  7 34  1  0
  8 10  1  0
  8 13  1  0
  8 16  1  0
  9 16  2  0
 10 11  1  0
 10 14  1  0
 11 12  2  0
 11 15  1  0
 12 13  1  0
 14 18  1  0
 14 19  2  0
 15 17  1  0
 16 20  1  0
 17 21  2  0
 18 26  2  0
 19 24  1  0
 20 25  2  0
 21 23  1  0
 22 23  1  0
 22 28  2  0
 23 29  2  0
 24 27  2  0
 25 32  1  0
 26 27  1  0
 28 30  1  0
 29 31  1  0
 30 31  2  0
M  END
> <chembl_id>
CHEMBL1587683

> <chembl_pref_name>
None

$$$$
CHEMBL451532
     RDKit          2D

 42 46  0  0  0  0  0  0  0  0999 V2000
    0.3152   -1.6248    0.0000 C   0  0  0  0  0  0  0  0  0  0  0  0
    0.3141   -2.4520    0.0000 C   0  0  0  0  0  0  0  0  0  0  0  0
    1.0288   -2.8649    0.0000 C   0  0  0  0  0  0  0  0  0  0  0  0
    1.0270   -1.2121    0.0000 C   0  0  0  0  0  0  0  0  0  0  0  0
    1.7423   -1.6211    0.0000 C   0  0  0  0  0  0  0  0  0  0  0  0
    1.7411   -2.4495    0.0000 C   0  0  0  0  0  0  0  0  0  0  0  0
    2.4540   -2.8625    0.0000 C   0  0  0  0  0  0  0  0  0  0  0  0
    3.1726   -2.4515    0.0000 C   0  0  0  0  0  0  0  0  0  0  0  0
    3.1738   -1.6231    0.0000 C   0  0  0  0  0  0  0  0  0  0  0  0
    2.4563   -1.2057    0.0000 O   0  0  0  0  0  0  0  0  0  0  0  0
    2.4516   -3.6874    0.0000 O   0  0  0  0  0  0  0  0  0  0  0  0
    3.8873   -1.2154    0.0000 C   0  0  0  0  0  0  0  0  0  0  0  0
    4.6010   -1.6313    0.0000 C   0  0  0  0  0  0  0  0  0  0  0  0
    5.3159   -1.2213    0.0000 C   0  0  0  0  0  0  0  0  0  0  0  0
    5.3184   -0.3955    0.0000 C   0  0  0  0  0  0  0  0  0  0  0  0
    4.5999    0.0185    0.0000 C   0  0  0  0  0  0  0  0  0  0  0  0
    3.8880   -0.3939    0.0000 C   0  0  0  0  0  0  0  0  0  0  0  0
    6.0332    0.0162    0.0000 O   0  0  0  0  0  0  0  0  0  0  0  0
    1.0305   -3.6898    0.0000 O   0  0  0  0  0  0  0  0  0  0  0  0
   -0.3993   -1.2125    0.0000 O   0  0  0  0  0  0  0  0  0  0  0  0
   -1.1136   -1.6251    0.0000 C   0  0  0  0  0  0  0  0  0  0  0  0
   -1.8322   -1.2097    0.0000 C   0  0  0  0  0  0  0  0  0  0  0  0
   -2.5444   -1.6188    0.0000 C   0  0  0  0  0  0  0  0  0  0  0  0
   -2.5484   -2.4440    0.0000 C   0  0  0  0  0  0  0  0  0  0  0  0
   -1.8341   -2.8585    0.0000 C   0  0  0  0  0  0  0  0  0  0  0  0
   -1.1158   -2.4477    0.0000 O   0  0  0  0  0  0  0  0  0  0  0  0
   -1.8367   -3.6834    0.0000 C   0  0  0  0  0  0  0  0  0  0  0  0
   -2.5524   -4.0937    0.0000 O   0  0  0  0  0  0  0  0  0  0  0  0
   -3.2644   -2.8540    0.0000 O   0  0  0  0  0  0  0  0  0  0  0  0
   -3.2574   -1.2038    0.0000 O   0  0  0  0  0  0  0  0  0  0  0  0
   -1.8311   -0.3848    0.0000 O   0  0  0  0  0  0  0  0  0  0  0  0
   -2.5449    0.0287    0.0000 C   0  0  0  0  0  0  0  0  0  0  0  0
   -2.5457    0.8586    0.0000 O   0  0  0  0  0  0  0  0  0  0  0  0
   -3.2555    1.2719    0.0000 C   0  0  0  0  0  0  0  0  0  0  0  0
   -3.9729    0.8639    0.0000 C   0  0  0  0  0  0  0  0  0  0  0  0
   -3.9760    0.0381    0.0000 C   0  0  0  0  0  0  0  0  0  0  0  0
   -3.2617   -0.3799    0.0000 C   0  0  0  0  0  0  0  0  0  0  0  0
   -1.8331    0.4458    0.0000 H   0  0  0  0  0  0  0  0  0  0  0  0
   -3.2513    2.0968    0.0000 C   0  0  0  0  0  0  0  0  0  0  0  0
   -4.6923   -0.3710    0.0000 O   0  0  0  0  0  0  0  0  0  0  0  0
   -4.6851    1.2801    0.0000 O   0  0  0  0  0  0  0  0  0  0  0  0
   -3.8496   -0.9624    0.0000 O   0  0  0  0  0  0  0  0  0  0  0  0
  1 20  1  0
  8  9  1  0
 21 20  1  6
 21 22  1  0
  9 10  1  0
  5  6  1  0
  7 11  2  0
  2  3  1  0
 21 26  1  0
 22 23  1  0
 23 24  1  0
 24 25  1  0
 25 26  1  0
 12 13  2  0
 25 27  1  6
  3  6  2  0
 27 28  1  0
 13 14  1  0
 24 29  1  1
  1  2  2  0
 23 30  1  6
 14 15  2  0
 22 31  1  1
  5  4  2  0
 31 32  1  0
 32 33  1  0
 15 16  1  0
  4  1  1  0
 16 17  2  0
 17 12  1  0
  9 12  1  6
 32 37  1  0
 33 34  1  0
 34 35  1  0
 35 36  1  0
 36 37  1  0
  5 10  1  0
 32 38  1  6
 15 18  1  0
 34 39  1  6
  6  7  1  0
 36 40  1  6
  3 19  1  0
 35 41  1  1
  7  8  1  0
 37 42  1  6
M  END
> <chembl_id>
CHEMBL451532

> <chembl_pref_name>
NARINGIN

$$$$
CHEMBL1492622
     RDKit          2D

 33 36  0  0  0  0  0  0  0  0999 V2000
   -3.0471    2.2037    0.0000 S   0  0  0  0  0  0  0  0  0  0  0  0
   -0.8280    0.2870    0.0000 S   0  0  0  0  0  0  0  0  0  0  0  0
   -3.5737   -0.5056    0.0000 O   0  0  0  0  0  0  0  0  0  0  0  0
   -5.4426    1.2135    0.0000 O   0  0  0  0  0  0  0  0  0  0  0  0
    0.7737   -0.1093    0.0000 O   0  0  0  0  0  0  0  0  0  0  0  0
   -2.2009   -0.1093    0.0000 N   0  0  0  0  0  0  0  0  0  0  0  0
   -1.8576    1.2778    0.0000 N   0  0  0  0  0  0  0  0  0  0  0  0
    1.1169    1.2778    0.0000 N   0  0  0  0  0  0  0  0  0  0  0  0
    3.5195    0.6833    0.0000 N   0  0  0  0  0  0  0  0  0  0  0  0
   -3.2305    0.8815    0.0000 C   0  0  0  0  0  0  0  0  0  0  0  0
   -3.0017    0.0888    0.0000 C   0  0  0  0  0  0  0  0  0  0  0  0
   -2.6585    1.4759    0.0000 C   0  0  0  0  0  0  0  0  0  0  0  0
   -3.9727    1.2418    0.0000 C   0  0  0  0  0  0  0  0  0  0  0  0
   -1.6288    0.4852    0.0000 C   0  0  0  0  0  0  0  0  0  0  0  0
   -4.7004    0.8532    0.0000 C   0  0  0  0  0  0  0  0  0  0  0  0
   -1.9720   -0.9020    0.0000 C   0  0  0  0  0  0  0  0  0  0  0  0
   -3.8593    2.0590    0.0000 C   0  0  0  0  0  0  0  0  0  0  0  0
   -4.8138    0.0360    0.0000 C   0  0  0  0  0  0  0  0  0  0  0  0
   -1.1712   -1.1001    0.0000 C   0  0  0  0  0  0  0  0  0  0  0  0
   -2.5441   -1.4964    0.0000 C   0  0  0  0  0  0  0  0  0  0  0  0
   -0.2559    0.8815    0.0000 C   0  0  0  0  0  0  0  0  0  0  0  0
   -6.0146    0.6191    0.0000 C   0  0  0  0  0  0  0  0  0  0  0  0
   -5.6260   -0.1087    0.0000 C   0  0  0  0  0  0  0  0  0  0  0  0
    0.5449    0.6833    0.0000 C   0  0  0  0  0  0  0  0  0  0  0  0
    1.9178    1.0796    0.0000 C   0  0  0  0  0  0  0  0  0  0  0  0
   -0.9424   -1.8927    0.0000 C   0  0  0  0  0  0  0  0  0  0  0  0
   -2.3153   -2.2891    0.0000 C   0  0  0  0  0  0  0  0  0  0  0  0
   -1.5144   -2.4872    0.0000 C   0  0  0  0  0  0  0  0  0  0  0  0
    2.1160    1.8805    0.0000 C   0  0  0  0  0  0  0  0  0  0  0  0
    2.7186    0.8815    0.0000 C   0  0  0  0  0  0  0  0  0  0  0  0
    1.7196    0.2788    0.0000 C   0  0  0  0  0  0  0  0  0  0  0  0
    1.5215    2.4525    0.0000 C   0  0  0  0  0  0  0  0  0  0  0  0
    2.9086    2.1093    0.0000 C   0  0  0  0  0  0  0  0  0  0  0  0
  1 12  1  0
  1 17  1  0
  2 14  1  0
  2 21  1  0
  3 11  2  0
  4 15  1  0
  4 22  1  0
  5 24  2  0
  6 11  1  0
  6 14  1  0
  6 16  1  0
  7 12  1  0
  7 14  2  0
  8 24  1  0
  8 25  1  0
  9 30  3  0
 10 11  1  0
 10 12  2  0
 10 13  1  0
 13 15  1  0
 13 17  2  0
 15 18  2  0
 16 19  2  0
 16 20  1  0
 18 23  1  0
 19 26  1  0
 20 27  2  0
 21 24  1  0
 22 23  2  0
 25 29  1  0
 25 30  1  0
 25 31  1  0
 26 28  2  0
 27 28  1  0
 29 32  1  0
 29 33  1  0
M  END
> <chembl_id>
CHEMBL1492622

> <chembl_pref_name>
None

$$$$
CHEMBL2023684
     RDKit          2D

 20 22  0  0  0  0  0  0  0  0999 V2000
    0.8308   -1.7094    0.0000 C   0  0  0  0  0  0  0  0  0  0  0  0
    0.0238   -1.5378    0.0000 C   0  0  0  0  0  0  0  0  0  0  0  0
    1.4141   -1.1260    0.0000 O   0  0  0  0  0  0  0  0  0  0  0  0
    1.0857   -2.4940    0.0000 O   0  0  0  0  0  0  0  0  0  0  0  0
   -0.2311    0.5817    0.0000 N   0  0  0  0  0  0  0  0  0  0  0  0
    0.2538   -0.0858    0.0000 C   0  0  0  0  0  0  0  0  0  0  0  0
   -0.2311   -0.7532    0.0000 C   0  0  0  0  0  0  0  0  0  0  0  0
   -1.0158   -0.4983    0.0000 C   0  0  0  0  0  0  0  0  0  0  0  0
   -1.7302   -0.9108    0.0000 C   0  0  0  0  0  0  0  0  0  0  0  0
   -2.4447   -0.4983    0.0000 C   0  0  0  0  0  0  0  0  0  0  0  0
   -2.4447    0.3267    0.0000 C   0  0  0  0  0  0  0  0  0  0  0  0
   -1.7302    0.7392    0.0000 C   0  0  0  0  0  0  0  0  0  0  0  0
   -1.0158    0.3267    0.0000 C   0  0  0  0  0  0  0  0  0  0  0  0
    0.0238    1.3663    0.0000 C   0  0  0  0  0  0  0  0  0  0  0  0
    0.8308    1.5378    0.0000 C   0  0  0  0  0  0  0  0  0  0  0  0
    1.0857    2.3224    0.0000 C   0  0  0  0  0  0  0  0  0  0  0  0
    1.8927    2.4940    0.0000 C   0  0  0  0  0  0  0  0  0  0  0  0
    2.4447    1.8809    0.0000 C   0  0  0  0  0  0  0  0  0  0  0  0
    2.1898    1.0963    0.0000 C   0  0  0  0  0  0  0  0  0  0  0  0
    1.3828    0.9247    0.0000 C   0  0  0  0  0  0  0  0  0  0  0  0
  1  2  1  0
  1  3  2  0
  1  4  1  0
  5  6  1  0
  6  7  2  0
  7  8  1  0
  8  9  1  0
  9 10  2  0
 10 11  1  0
 11 12  2  0
 12 13  1  0
  5 13  1  0
  8 13  2  0
 14 15  1  0
 15 16  1  0
 16 17  2  0
 17 18  1  0
 18 19  2  0
 19 20  1  0
 15 20  2  0
  5 14  1  0
  2  7  1  0
M  END
> <chembl_id>
CHEMBL2023684

> <chembl_pref_name>
None

$$$$
CHEMBL1494390
     RDKit          2D

 23 24  0  0  0  0  0  0  0  0999 V2000
    1.5808    4.3735    0.0000 Br  0  0  0  0  0  0  0  0  0  0  0  0
    1.3221    0.9208    0.0000 O   0  0  0  0  0  0  0  0  0  0  0  0
    3.3097    2.2013    0.0000 O   0  0  0  0  0  0  0  0  0  0  0  0
   -0.1504    1.3749    0.0000 O   0  0  0  0  0  0  0  0  0  0  0  0
    3.3097   -2.7487    0.0000 O   0  0  0  0  0  0  0  0  0  0  0  0
    1.8808    2.2013    0.0000 C   0  0  0  0  0  0  0  0  0  0  0  0
    1.1991    1.7365    0.0000 C   0  0  0  0  0  0  0  0  0  0  0  0
    2.5953    1.7888    0.0000 C   0  0  0  0  0  0  0  0  0  0  0  0
    0.4108    1.9797    0.0000 C   0  0  0  0  0  0  0  0  0  0  0  0
    1.9424    3.0240    0.0000 C   0  0  0  0  0  0  0  0  0  0  0  0
    1.3377    3.5851    0.0000 C   0  0  0  0  0  0  0  0  0  0  0  0
    0.1094    2.7477    0.0000 C   0  0  0  0  0  0  0  0  0  0  0  0
    2.5953    0.9638    0.0000 C   0  0  0  0  0  0  0  0  0  0  0  0
    0.5219    3.4622    0.0000 C   0  0  0  0  0  0  0  0  0  0  0  0
    3.3097   -0.2737    0.0000 C   0  0  0  0  0  0  0  0  0  0  0  0
    3.3097    0.5513    0.0000 C   0  0  0  0  0  0  0  0  0  0  0  0
    3.3097   -1.9237    0.0000 C   0  0  0  0  0  0  0  0  0  0  0  0
    4.0242   -0.6862    0.0000 C   0  0  0  0  0  0  0  0  0  0  0  0
    2.5953   -0.6862    0.0000 C   0  0  0  0  0  0  0  0  0  0  0  0
    4.0242   -1.5112    0.0000 C   0  0  0  0  0  0  0  0  0  0  0  0
    2.5953   -1.5112    0.0000 C   0  0  0  0  0  0  0  0  0  0  0  0
    2.5953   -3.1612    0.0000 C   0  0  0  0  0  0  0  0  0  0  0  0
    2.5953   -3.9862    0.0000 C   0  0  0  0  0  0  0  0  0  0  0  0
  1 11  1  0
  2  7  1  0
  3  8  2  0
  4  9  2  0
  5 17  1  0
  5 22  1  0
  6  7  2  0
  6  8  1  0
  6 10  1  0
  7  9  1  0
  8 13  1  0
  9 12  1  0
 10 11  2  0
 11 14  1  0
 12 14  2  0
 13 16  2  0
 15 16  1  0
 15 18  2  0
 15 19  1  0
 17 20  2  0
 17 21  1  0
 18 20  1  0
 19 21  2  0
 22 23  1  0
M  END
> <chembl_id>
CHEMBL1494390

> <chembl_pref_name>
None

$$$$
CHEMBL3198103
     RDKit          2D

 32 35  0  0  0  0  0  0  0  0999 V2000
    1.7138    1.2033    0.0000 S   0  0  0  0  0  0  0  0  0  0  0  0
    2.0907   -2.3426    0.0000 O   0  0  0  0  0  0  0  0  0  0  0  0
   -3.3560    1.3452    0.0000 O   0  0  0  0  0  0  0  0  0  0  0  0
    4.0102    5.2323    0.0000 O   0  0  0  0  0  0  0  0  0  0  0  0
    7.0161    5.2768    0.0000 O   0  0  0  0  0  0  0  0  0  0  0  0
    0.2917   -0.7475    0.0000 N   0  0  0  0  0  0  0  0  0  0  0  0
   -1.0028   -1.5132    0.0000 N   0  0  0  0  0  0  0  0  0  0  0  0
   -1.0028    1.5132    0.0000 N   0  0  0  0  0  0  0  0  0  0  0  0
    0.2917    0.7475    0.0000 C   0  0  0  0  0  0  0  0  0  0  0  0
    1.7138   -1.2033    0.0000 C   0  0  0  0  0  0  0  0  0  0  0  0
    2.5889    0.0182    0.0000 C   0  0  0  0  0  0  0  0  0  0  0  0
   -2.3155   -0.7475    0.0000 C   0  0  0  0  0  0  0  0  0  0  0  0
   -2.3155    0.7475    0.0000 C   0  0  0  0  0  0  0  0  0  0  0  0
   -3.6168   -1.4950    0.0000 C   0  0  0  0  0  0  0  0  0  0  0  0
    4.0872    0.0382    0.0000 C   0  0  0  0  0  0  0  0  0  0  0  0
    4.8208    1.3475    0.0000 C   0  0  0  0  0  0  0  0  0  0  0  0
    4.0518    2.6354    0.0000 C   0  0  0  0  0  0  0  0  0  0  0  0
    4.7825    3.9454    0.0000 C   0  0  0  0  0  0  0  0  0  0  0  0
   -3.6203   -2.9951    0.0000 C   0  0  0  0  0  0  0  0  0  0  0  0
   -4.9143   -0.7422    0.0000 C   0  0  0  0  0  0  0  0  0  0  0  0
    6.3207    1.3698    0.0000 C   0  0  0  0  0  0  0  0  0  0  0  0
    6.2823    3.9676    0.0000 C   0  0  0  0  0  0  0  0  0  0  0  0
    7.0514    2.6798    0.0000 C   0  0  0  0  0  0  0  0  0  0  0  0
   -4.9210   -3.7422    0.0000 C   0  0  0  0  0  0  0  0  0  0  0  0
   -6.2150   -1.4893    0.0000 C   0  0  0  0  0  0  0  0  0  0  0  0
   -6.2184   -2.9893    0.0000 C   0  0  0  0  0  0  0  0  0  0  0  0
    8.5168    5.2969    0.0000 C   0  0  0  0  0  0  0  0  0  0  0  0
    2.8104    5.2129    0.0000 C   0  0  0  0  0  0  0  0  0  0  0  0
    9.2506    6.6061    0.0000 C   0  0  0  0  0  0  0  0  0  0  0  0
   10.7513    6.6261    0.0000 C   0  0  0  0  0  0  0  0  0  0  0  0
   11.4851    7.9353    0.0000 C   0  0  0  0  0  0  0  0  0  0  0  0
   12.6850    7.9514    0.0000 C   0  0  0  0  0  0  0  0  0  0  0  0
  1  9  1  0
  1 11  1  0
  2 10  2  0
  3 13  2  0
  4 18  1  0
  4 28  1  0
  5 22  1  0
  5 27  1  0
  6  7  1  0
  6  9  1  0
  6 10  1  0
  7 12  2  0
  8  9  2  0
  8 13  1  0
 10 11  1  0
 11 15  2  0
 12 13  1  0
 12 14  1  0
 14 19  2  0
 14 20  1  0
 15 16  1  0
 16 17  1  0
 16 21  2  0
 17 18  2  0
 18 22  1  0
 19 24  1  0
 20 25  2  0
 21 23  1  0
 22 23  2  0
 24 26  2  0
 25 26  1  0
 27 29  1  0
 29 30  1  0
 30 31  1  0
 31 32  1  0
M  END
> <chembl_id>
CHEMBL3198103

> <chembl_pref_name>
None

$$$$
CHEMBL1771767
     RDKit          2D

 24 26  0  0  0  0  0  0  0  0999 V2000
    7.6916   -9.5465    0.0000 C   0  0  0  0  0  0  0  0  0  0  0  0
    7.6904  -10.3735    0.0000 C   0  0  0  0  0  0  0  0  0  0  0  0
    8.4050  -10.7863    0.0000 C   0  0  0  0  0  0  0  0  0  0  0  0
    8.4032   -9.1339    0.0000 C   0  0  0  0  0  0  0  0  0  0  0  0
    9.1183   -9.5428    0.0000 C   0  0  0  0  0  0  0  0  0  0  0  0
    9.1171  -10.3756    0.0000 C   0  0  0  0  0  0  0  0  0  0  0  0
    9.8337  -10.7908    0.0000 N   0  0  0  0  0  0  0  0  0  0  0  0
    9.8361   -9.1252    0.0000 C   0  0  0  0  0  0  0  0  0  0  0  0
    9.8362   -8.3005    0.0000 N   0  0  0  0  0  0  0  0  0  0  0  0
   10.5505   -7.8882    0.0000 N   0  0  0  0  0  0  0  0  0  0  0  0
   10.5574   -9.5449    0.0000 C   0  0  0  0  0  0  0  0  0  0  0  0
   10.5543  -10.3797    0.0000 C   0  0  0  0  0  0  0  0  0  0  0  0
   10.5505   -7.0635    0.0000 C   0  0  0  0  0  0  0  0  0  0  0  0
   11.2647   -6.6512    0.0000 C   0  0  0  0  0  0  0  0  0  0  0  0
    9.8362   -6.6511    0.0000 O   0  0  0  0  0  0  0  0  0  0  0  0
   11.9804   -7.0641    0.0000 N   0  0  0  0  0  0  0  0  0  0  0  0
   12.6925   -6.6553    0.0000 C   0  0  0  0  0  0  0  0  0  0  0  0
   12.6968   -5.8303    0.0000 C   0  0  0  0  0  0  0  0  0  0  0  0
   11.9827   -5.4157    0.0000 N   0  0  0  0  0  0  0  0  0  0  0  0
   11.2644   -5.8262    0.0000 C   0  0  0  0  0  0  0  0  0  0  0  0
   11.2667  -10.7953    0.0000 C   0  0  0  0  0  0  0  0  0  0  0  0
    6.9759  -10.7854    0.0000 O   0  0  0  0  0  0  0  0  0  0  0  0
    6.2620  -10.3724    0.0000 C   0  0  0  0  0  0  0  0  0  0  0  0
    5.5475  -10.7842    0.0000 C   0  0  0  0  0  0  0  0  0  0  0  0
  5  6  1  0
  2  3  1  0
 10 13  1  0
  3  6  2  0
 13 14  1  0
  1  2  2  0
 13 15  2  0
 14 16  2  0
  5  8  1  0
  6  7  1  0
  7 12  2  0
 11  8  2  0
  5  4  2  0
 14 20  1  0
 16 17  1  0
 17 18  2  0
 18 19  1  0
 19 20  2  0
  8  9  1  0
 12 21  1  0
  4  1  1  0
  2 22  1  0
  9 10  1  0
 22 23  1  0
 11 12  1  0
 23 24  1  0
M  END
> <chembl_id>
CHEMBL1771767

> <chembl_pref_name>
None

$$$$
CHEMBL1595235
     RDKit          2D

 18 19  0  0  0  0  0  0  0  0999 V2000
    0.5600    2.8574    0.0000 S   0  0  0  0  0  0  0  0  0  0  0  0
   -0.6730    2.0567    0.0000 S   0  0  0  0  0  0  0  0  0  0  0  0
    1.9801    3.2379    0.0000 O   0  0  0  0  0  0  0  0  0  0  0  0
    0.7858   -1.0945    0.0000 O   0  0  0  0  0  0  0  0  0  0  0  0
    0.6996    1.5298    0.0000 N   0  0  0  0  0  0  0  0  0  0  0  0
    1.4532    1.8654    0.0000 C   0  0  0  0  0  0  0  0  0  0  0  0
    1.3670    2.6859    0.0000 C   0  0  0  0  0  0  0  0  0  0  0  0
    0.1475    2.1429    0.0000 C   0  0  0  0  0  0  0  0  0  0  0  0
    2.1677    1.4529    0.0000 C   0  0  0  0  0  0  0  0  0  0  0  0
    2.1677    0.6279    0.0000 C   0  0  0  0  0  0  0  0  0  0  0  0
    1.4532   -0.6096    0.0000 C   0  0  0  0  0  0  0  0  0  0  0  0
    1.4532    0.2154    0.0000 C   0  0  0  0  0  0  0  0  0  0  0  0
   -1.0085    1.3030    0.0000 C   0  0  0  0  0  0  0  0  0  0  0  0
    2.1207   -1.0945    0.0000 C   0  0  0  0  0  0  0  0  0  0  0  0
    1.0407   -1.8792    0.0000 C   0  0  0  0  0  0  0  0  0  0  0  0
    1.8657   -1.8792    0.0000 C   0  0  0  0  0  0  0  0  0  0  0  0
   -1.8290    1.2168    0.0000 C   0  0  0  0  0  0  0  0  0  0  0  0
   -2.1646    0.4631    0.0000 C   0  0  0  0  0  0  0  0  0  0  0  0
  1  7  1  0
  1  8  1  0
  2  8  1  0
  2 13  1  0
  3  7  2  0
  4 11  1  0
  4 15  1  0
  5  6  1  0
  5  8  2  0
  6  7  1  0
  6  9  2  0
  9 10  1  0
 10 12  2  0
 11 12  1  0
 11 14  2  0
 13 17  1  0
 14 16  1  0
 15 16  2  0
 17 18  2  0
M  END
> <chembl_id>
CHEMBL1595235

> <chembl_pref_name>
None

$$$$
CHEMBL55415
     RDKit          2D

 21 23  0  0  0  0  0  0  0  0999 V2000
    7.9596   -7.0748    0.0000 C   0  0  0  0  0  0  0  0  0  0  0  0
    7.9596   -7.8998    0.0000 C   0  0  0  0  0  0  0  0  0  0  0  0
    7.2452   -8.3124    0.0000 C   0  0  0  0  0  0  0  0  0  0  0  0
    7.2452   -9.1373    0.0000 O   0  0  0  0  0  0  0  0  0  0  0  0
    6.5307   -7.8998    0.0000 C   0  0  0  0  0  0  0  0  0  0  0  0
    5.8163   -8.3123    0.0000 C   0  0  0  0  0  0  0  0  0  0  0  0
    5.1018   -7.8998    0.0000 C   0  0  0  0  0  0  0  0  0  0  0  0
    5.1018   -7.0748    0.0000 C   0  0  0  0  0  0  0  0  0  0  0  0
    5.8163   -6.6624    0.0000 C   0  0  0  0  0  0  0  0  0  0  0  0
    6.5307   -7.0748    0.0000 C   0  0  0  0  0  0  0  0  0  0  0  0
    7.2452   -6.6624    0.0000 O   0  0  0  0  0  0  0  0  0  0  0  0
    8.6741   -6.6624    0.0000 C   0  0  0  0  0  0  0  0  0  0  0  0
    8.6741   -5.8374    0.0000 C   0  0  0  0  0  0  0  0  0  0  0  0
    9.3885   -5.4249    0.0000 C   0  0  0  0  0  0  0  0  0  0  0  0
   10.1030   -5.8374    0.0000 C   0  0  0  0  0  0  0  0  0  0  0  0
   10.1030   -6.6624    0.0000 C   0  0  0  0  0  0  0  0  0  0  0  0
    9.3885   -7.0748    0.0000 C   0  0  0  0  0  0  0  0  0  0  0  0
   10.8174   -5.4249    0.0000 O   0  0  0  0  0  0  0  0  0  0  0  0
    4.3874   -6.6624    0.0000 O   0  0  0  0  0  0  0  0  0  0  0  0
    4.3874   -8.3123    0.0000 O   0  0  0  0  0  0  0  0  0  0  0  0
    5.8163   -9.1373    0.0000 O   0  0  0  0  0  0  0  0  0  0  0  0
  1  2  2  0
  2  3  1  0
  3  4  2  0
  3  5  1  0
  5  6  1  0
  6  7  2  0
  7  8  1  0
  8  9  2  0
  9 10  1  0
  5 10  2  0
 10 11  1  0
  1 11  1  0
  1 12  1  0
 12 13  1  0
 13 14  2  0
 14 15  1  0
 15 16  2  0
 16 17  1  0
 12 17  2  0
 15 18  1  0
  8 19  1  0
  7 20  1  0
  6 21  1  0
M  END
> <chembl_id>
CHEMBL55415

> <chembl_pref_name>
SCUTELLAREIN

$$$$
CHEMBL1346055
     RDKit          2D

 29 32  0  0  0  0  0  0  0  0999 V2000
   -3.6735    6.3434    0.0000 Cl  0  0  0  0  0  0  0  0  0  0  0  0
   -0.7925    3.6384    0.0000 O   0  0  0  0  0  0  0  0  0  0  0  0
   -3.6966    3.6384    0.0000 O   0  0  0  0  0  0  0  0  0  0  0  0
   -0.0476   -2.3754    0.0000 O   0  0  0  0  0  0  0  0  0  0  0  0
   -1.4454   -2.0783    0.0000 O   0  0  0  0  0  0  0  0  0  0  0  0
   -2.2446    3.8684    0.0000 N   0  0  0  0  0  0  0  0  0  0  0  0
   -2.6571    2.5988    0.0000 N   0  0  0  0  0  0  0  0  0  0  0  0
    0.0254    1.4045    0.0000 N   0  0  0  0  0  0  0  0  0  0  0  0
   -1.5771    3.3834    0.0000 C   0  0  0  0  0  0  0  0  0  0  0  0
   -1.8321    2.5988    0.0000 C   0  0  0  0  0  0  0  0  0  0  0  0
   -2.9120    3.3834    0.0000 C   0  0  0  0  0  0  0  0  0  0  0  0
   -2.2446    4.6934    0.0000 C   0  0  0  0  0  0  0  0  0  0  0  0
   -0.5267    2.0176    0.0000 C   0  0  0  0  0  0  0  0  0  0  0  0
   -1.3471    1.9314    0.0000 C   0  0  0  0  0  0  0  0  0  0  0  0
   -0.1462    0.5975    0.0000 C   0  0  0  0  0  0  0  0  0  0  0  0
   -2.9590    5.1059    0.0000 C   0  0  0  0  0  0  0  0  0  0  0  0
   -1.5301    5.1059    0.0000 C   0  0  0  0  0  0  0  0  0  0  0  0
   -0.1142    2.7321    0.0000 C   0  0  0  0  0  0  0  0  0  0  0  0
    0.7790    1.7401    0.0000 C   0  0  0  0  0  0  0  0  0  0  0  0
   -2.9590    5.9309    0.0000 C   0  0  0  0  0  0  0  0  0  0  0  0
    0.6928    2.5606    0.0000 C   0  0  0  0  0  0  0  0  0  0  0  0
    0.4669    0.0455    0.0000 C   0  0  0  0  0  0  0  0  0  0  0  0
   -0.9308    0.3426    0.0000 C   0  0  0  0  0  0  0  0  0  0  0  0
   -1.5301    5.9309    0.0000 C   0  0  0  0  0  0  0  0  0  0  0  0
   -0.4892   -1.0164    0.0000 C   0  0  0  0  0  0  0  0  0  0  0  0
   -2.2446    6.3434    0.0000 C   0  0  0  0  0  0  0  0  0  0  0  0
    0.2954   -0.7615    0.0000 C   0  0  0  0  0  0  0  0  0  0  0  0
   -1.1023   -0.4644    0.0000 C   0  0  0  0  0  0  0  0  0  0  0  0
   -0.6607   -1.8234    0.0000 C   0  0  0  0  0  0  0  0  0  0  0  0
  1 20  1  0
  2  9  2  0
  3 11  2  0
  4 29  2  0
  5 29  1  0
  6  9  1  0
  6 11  1  0
  6 12  1  0
  7 10  1  0
  7 11  1  0
  8 13  1  0
  8 15  1  0
  8 19  1  0
  9 10  1  0
 10 14  2  0
 12 16  1  0
 12 17  2  0
 13 14  1  0
 13 18  2  0
 15 22  2  0
 15 23  1  0
 16 20  2  0
 17 24  1  0
 18 21  1  0
 19 21  2  0
 20 26  1  0
 22 27  1  0
 23 28  2  0
 24 26  2  0
 25 27  2  0
 25 28  1  0
 25 29  1  0
M  END
> <chembl_id>
CHEMBL1346055

> <chembl_pref_name>
None

$$$$
CHEMBL3427782
     RDKit          2D

 15 16  0  0  0  0  0  0  0  0999 V2000
    1.2990   -0.7500    0.0000 C   0  0  0  0  0  0  0  0  0  0  0  0
    1.2990    0.7500    0.0000 C   0  0  0  0  0  0  0  0  0  0  0  0
    0.0000    1.5000    0.0000 C   0  0  0  0  0  0  0  0  0  0  0  0
   -1.2990    0.7500    0.0000 C   0  0  0  0  0  0  0  0  0  0  0  0
   -1.2990   -0.7500    0.0000 C   0  0  0  0  0  0  0  0  0  0  0  0
    0.0000   -1.5000    0.0000 C   0  0  0  0  0  0  0  0  0  0  0  0
   -2.6003    1.4977    0.0000 O   0  0  0  0  0  0  0  0  0  0  0  0
   -3.8990    0.7455    0.0000 C   0  0  0  0  0  0  0  0  0  0  0  0
    2.5973   -1.5031    0.0000 C   0  0  0  0  0  0  0  0  0  0  0  0
    2.5956   -2.7031    0.0000 N   0  0  0  0  0  0  0  0  0  0  0  0
   -5.2007    1.4909    0.0000 C   0  0  0  0  0  0  0  0  0  0  0  0
   -6.4972    0.7364    0.0000 C   0  0  0  0  0  0  0  0  0  0  0  0
   -6.4920   -0.7636    0.0000 C   0  0  0  0  0  0  0  0  0  0  0  0
   -5.1903   -1.5091    0.0000 C   0  0  0  0  0  0  0  0  0  0  0  0
   -3.8939   -0.7546    0.0000 C   0  0  0  0  0  0  0  0  0  0  0  0
  1  2  2  0
  2  3  1  0
  3  4  2  0
  4  5  1  0
  5  6  2  0
  6  1  1  0
  4  7  1  0
  7  8  1  0
  1  9  1  0
  9 10  1  0
  8 11  2  0
 11 12  1  0
 12 13  2  0
 13 14  1  0
 14 15  2  0
 15  8  1  0
M  END
> <chembl_id>
CHEMBL3427782

> <chembl_pref_name>
None

$$$$
CHEMBL290928
     RDKit          2D

 42 47  0  0  0  0  0  0  0  0999 V2000
   10.2542   -6.1792    0.0000 C   0  0  0  0  0  0  0  0  0  0  0  0
   -1.8625   -3.2167    0.0000 C   0  0  0  0  0  0  0  0  0  0  0  0
   -2.5833   -3.6292    0.0000 N   0  0  0  0  0  0  0  0  0  0  0  0
   10.2542   -6.9042    0.0000 N   0  0  0  0  0  0  0  0  0  0  0  0
   10.8792   -5.8250    0.0000 N   0  0  0  0  0  0  0  0  0  0  0  0
   -1.8583   -2.3917    0.0000 N   0  0  0  0  0  0  0  0  0  0  0  0
   -3.2833   -2.3917    0.0000 C   0  0  0  0  0  0  0  0  0  0  0  0
   11.4917   -6.9125    0.0000 C   0  0  0  0  0  0  0  0  0  0  0  0
   11.5000   -6.1917    0.0000 C   0  0  0  0  0  0  0  0  0  0  0  0
   -2.5708   -1.9792    0.0000 C   0  0  0  0  0  0  0  0  0  0  0  0
    9.5417   -5.7667    0.0000 C   0  0  0  0  0  0  0  0  0  0  0  0
   -1.1583   -3.6375    0.0000 C   0  0  0  0  0  0  0  0  0  0  0  0
    6.6917   -4.9292    0.0000 C   0  0  0  0  0  0  0  0  0  0  0  0
    1.6917   -4.4792    0.0000 C   0  0  0  0  0  0  0  0  0  0  0  0
    0.9792   -4.8917    0.0000 N   0  0  0  0  0  0  0  0  0  0  0  0
    7.4125   -4.5167    0.0000 N   0  0  0  0  0  0  0  0  0  0  0  0
    6.6917   -5.7542    0.0000 O   0  0  0  0  0  0  0  0  0  0  0  0
    1.7000   -3.6542    0.0000 O   0  0  0  0  0  0  0  0  0  0  0  0
   -0.4375   -3.2292    0.0000 C   0  0  0  0  0  0  0  0  0  0  0  0
    9.5500   -4.9375    0.0000 C   0  0  0  0  0  0  0  0  0  0  0  0
    8.8292   -6.1750    0.0000 C   0  0  0  0  0  0  0  0  0  0  0  0
   -1.1625   -4.4625    0.0000 C   0  0  0  0  0  0  0  0  0  0  0  0
    8.1250   -4.9292    0.0000 C   0  0  0  0  0  0  0  0  0  0  0  0
    0.2667   -4.4667    0.0000 C   0  0  0  0  0  0  0  0  0  0  0  0
    8.8375   -4.5250    0.0000 C   0  0  0  0  0  0  0  0  0  0  0  0
   -0.4500   -4.8792    0.0000 C   0  0  0  0  0  0  0  0  0  0  0  0
    8.1167   -5.7542    0.0000 C   0  0  0  0  0  0  0  0  0  0  0  0
    0.2667   -3.6417    0.0000 C   0  0  0  0  0  0  0  0  0  0  0  0
   12.1167   -7.2667    0.0000 C   0  0  0  0  0  0  0  0  0  0  0  0
   -4.0000   -1.9792    0.0000 C   0  0  0  0  0  0  0  0  0  0  0  0
   12.1167   -5.8375    0.0000 C   0  0  0  0  0  0  0  0  0  0  0  0
   -2.5708   -1.1542    0.0000 C   0  0  0  0  0  0  0  0  0  0  0  0
    2.4042   -4.9000    0.0000 C   0  0  0  0  0  0  0  0  0  0  0  0
    5.9792   -4.5042    0.0000 C   0  0  0  0  0  0  0  0  0  0  0  0
    5.2667   -4.9167    0.0000 C   0  0  0  0  0  0  0  0  0  0  0  0
    3.1250   -4.4917    0.0000 C   0  0  0  0  0  0  0  0  0  0  0  0
    3.8375   -4.9042    0.0000 C   0  0  0  0  0  0  0  0  0  0  0  0
    4.5542   -4.5000    0.0000 C   0  0  0  0  0  0  0  0  0  0  0  0
   -4.0000   -1.1542    0.0000 C   0  0  0  0  0  0  0  0  0  0  0  0
   12.7375   -6.1917    0.0000 C   0  0  0  0  0  0  0  0  0  0  0  0
   12.7375   -6.9167    0.0000 C   0  0  0  0  0  0  0  0  0  0  0  0
   -3.2875   -0.7417    0.0000 C   0  0  0  0  0  0  0  0  0  0  0  0
  2 12  1  0
  3  2  2  0
  4  1  2  0
  5  1  1  0
  6  2  1  0
  7  3  1  0
  8  4  1  0
  9  5  1  0
 10  6  1  0
 11  1  1  0
 12 19  1  0
 13 16  1  0
 14 33  1  0
 15 14  1  0
 16 23  1  0
 17 13  2  0
 18 14  2  0
 19 28  2  0
 20 11  1  0
 21 11  2  0
 22 26  1  0
 23 27  2  0
 24 15  1  0
 25 20  2  0
 26 24  2  0
 27 21  1  0
 28 24  1  0
 29  8  1  0
 30  7  1  0
 31  9  1  0
 32 10  1  0
 33 36  1  0
 34 13  1  0
 35 34  1  0
 36 37  1  0
 37 38  1  0
 38 35  1  0
 39 30  2  0
 40 31  2  0
 41 29  2  0
 42 32  2  0
  9  8  2  0
 25 23  1  0
 41 40  1  0
 12 22  2  0
 10  7  2  0
 42 39  1  0
M  END
> <chembl_id>
CHEMBL290928

> <chembl_pref_name>
None

$$$$
CHEMBL1771801
     RDKit          2D

 27 30  0  0  0  0  0  0  0  0999 V2000
   10.6818  -25.5364    0.0000 C   0  0  0  0  0  0  0  0  0  0  0  0
   10.6806  -26.3629    0.0000 C   0  0  0  0  0  0  0  0  0  0  0  0
   11.3946  -26.7753    0.0000 C   0  0  0  0  0  0  0  0  0  0  0  0
   11.3928  -25.1242    0.0000 C   0  0  0  0  0  0  0  0  0  0  0  0
   12.1073  -25.5328    0.0000 C   0  0  0  0  0  0  0  0  0  0  0  0
   12.1061  -26.3650    0.0000 C   0  0  0  0  0  0  0  0  0  0  0  0
   12.8222  -26.7797    0.0000 N   0  0  0  0  0  0  0  0  0  0  0  0
   12.8246  -25.1155    0.0000 C   0  0  0  0  0  0  0  0  0  0  0  0
   12.8247  -24.2915    0.0000 N   0  0  0  0  0  0  0  0  0  0  0  0
   13.5383  -23.8795    0.0000 N   0  0  0  0  0  0  0  0  0  0  0  0
    9.9666  -26.7743    0.0000 O   0  0  0  0  0  0  0  0  0  0  0  0
    9.2534  -26.3618    0.0000 C   0  0  0  0  0  0  0  0  0  0  0  0
    8.5394  -26.7732    0.0000 C   0  0  0  0  0  0  0  0  0  0  0  0
   13.5452  -25.5349    0.0000 C   0  0  0  0  0  0  0  0  0  0  0  0
   13.5422  -26.3645    0.0000 C   0  0  0  0  0  0  0  0  0  0  0  0
   14.2552  -26.7796    0.0000 C   0  0  0  0  0  0  0  0  0  0  0  0
   14.9756  -26.3697    0.0000 C   0  0  0  0  0  0  0  0  0  0  0  0
   14.9787  -25.5401    0.0000 C   0  0  0  0  0  0  0  0  0  0  0  0
   14.2612  -25.1204    0.0000 C   0  0  0  0  0  0  0  0  0  0  0  0
   13.5383  -23.0555    0.0000 C   0  0  0  0  0  0  0  0  0  0  0  0
   14.2520  -22.6436    0.0000 C   0  0  0  0  0  0  0  0  0  0  0  0
   12.8247  -22.6435    0.0000 O   0  0  0  0  0  0  0  0  0  0  0  0
   14.9608  -23.0578    0.0000 N   0  0  0  0  0  0  0  0  0  0  0  0
   15.6724  -22.6493    0.0000 C   0  0  0  0  0  0  0  0  0  0  0  0
   15.6767  -21.8249    0.0000 C   0  0  0  0  0  0  0  0  0  0  0  0
   14.9632  -21.4107    0.0000 N   0  0  0  0  0  0  0  0  0  0  0  0
   14.2455  -21.8208    0.0000 C   0  0  0  0  0  0  0  0  0  0  0  0
  2  3  1  0
 12 13  1  0
 14 15  1  0
  3  6  2  0
  1  2  2  0
  5  8  1  0
  6  7  1  0
  7 15  2  0
 14  8  2  0
 14 19  1  0
 15 16  1  0
 16 17  1  0
 17 18  1  0
 18 19  1  0
  5  4  2  0
 10 20  1  0
  8  9  1  0
 20 21  1  0
  4  1  1  0
 20 22  2  0
 21 23  2  0
  9 10  1  0
  5  6  1  0
  2 11  1  0
 11 12  1  0
 21 27  1  0
 23 24  1  0
 24 25  2  0
 25 26  1  0
 26 27  2  0
M  END
> <chembl_id>
CHEMBL1771801

> <chembl_pref_name>
None

$$$$
CHEMBL4553330
     RDKit          2D

 32 36  0  0  0  0  0  0  0  0999 V2000
   30.3104   -2.4928    0.0000 C   0  0  0  0  0  0  0  0  0  0  0  0
   30.3104   -3.3100    0.0000 C   0  0  0  0  0  0  0  0  0  0  0  0
   31.0156   -3.7145    0.0000 C   0  0  0  0  0  0  0  0  0  0  0  0
   31.7209   -3.3100    0.0000 N   0  0  0  0  0  0  0  0  0  0  0  0
   31.7209   -2.4928    0.0000 C   0  0  0  0  0  0  0  0  0  0  0  0
   31.0156   -2.0801    0.0000 N   0  0  0  0  0  0  0  0  0  0  0  0
   32.4298   -2.0863    0.0000 S   0  0  0  0  0  0  0  0  0  0  0  0
   29.6015   -2.0863    0.0000 O   0  0  0  0  0  0  0  0  0  0  0  0
   31.0156   -4.5317    0.0000 O   0  0  0  0  0  0  0  0  0  0  0  0
   29.6033   -3.7197    0.0000 C   0  0  0  0  0  0  0  0  0  0  0  0
   29.6044   -4.5368    0.0000 C   0  0  0  0  0  0  0  0  0  0  0  0
   30.0191   -5.7921    0.0000 N   0  0  0  0  0  0  0  0  0  0  0  0
   30.2704   -5.0145    0.0000 C   0  0  0  0  0  0  0  0  0  0  0  0
   29.2019   -5.7933    0.0000 C   0  0  0  0  0  0  0  0  0  0  0  0
   28.9516   -5.0192    0.0000 C   0  0  0  0  0  0  0  0  0  0  0  0
   28.1578   -4.8502    0.0000 C   0  0  0  0  0  0  0  0  0  0  0  0
   27.6133   -5.4544    0.0000 C   0  0  0  0  0  0  0  0  0  0  0  0
   27.8683   -6.2302    0.0000 C   0  0  0  0  0  0  0  0  0  0  0  0
   28.6616   -6.3955    0.0000 C   0  0  0  0  0  0  0  0  0  0  0  0
   30.4364   -6.4948    0.0000 C   0  0  0  0  0  0  0  0  0  0  0  0
   30.0368   -7.2076    0.0000 O   0  0  0  0  0  0  0  0  0  0  0  0
   31.2536   -6.4845    0.0000 C   0  0  0  0  0  0  0  0  0  0  0  0
   31.6685   -7.1879    0.0000 C   0  0  0  0  0  0  0  0  0  0  0  0
   32.8854   -6.4646    0.0000 C   0  0  0  0  0  0  0  0  0  0  0  0
   32.4844   -7.1748    0.0000 C   0  0  0  0  0  0  0  0  0  0  0  0
   26.8137   -5.2857    0.0000 Cl  0  0  0  0  0  0  0  0  0  0  0  0
   31.6485   -5.7732    0.0000 C   0  0  0  0  0  0  0  0  0  0  0  0
   32.4635   -5.7611    0.0000 C   0  0  0  0  0  0  0  0  0  0  0  0
   32.8588   -5.0504    0.0000 C   0  0  0  0  0  0  0  0  0  0  0  0
   32.4402   -4.3513    0.0000 C   0  0  0  0  0  0  0  0  0  0  0  0
   31.6222   -4.3674    0.0000 C   0  0  0  0  0  0  0  0  0  0  0  0
   31.2306   -5.0786    0.0000 C   0  0  0  0  0  0  0  0  0  0  0  0
  1  2  1  0
  1  6  1  0
  2  3  1  0
  3  4  1  0
  4  5  1  0
  5  6  1  0
  5  7  2  0
  1  8  2  0
  3  9  2  0
  2 10  2  0
 10 11  1  0
 11 15  1  0
 14 12  1  0
 12 13  1  0
 13 11  2  0
 14 15  2  0
 15 16  1  0
 16 17  2  0
 17 18  1  0
 18 19  2  0
 19 14  1  0
 12 20  1  0
 20 21  2  0
 20 22  1  0
 22 23  2  0
 23 25  1  0
 24 28  1  0
 27 22  1  0
 24 25  2  0
 17 26  1  0
 27 28  1  0
 28 29  2  0
 29 30  1  0
 30 31  2  0
 31 32  1  0
 32 27  2  0
M  END
> <chembl_id>
CHEMBL4553330

> <chembl_pref_name>
None

$$$$
CHEMBL3114564
     RDKit          2D

 36 38  0  0  0  0  0  0  0  0999 V2000
   16.9252   -9.0623    0.0000 N   0  0  0  0  0  0  0  0  0  0  0  0
   16.8827   -7.7395    0.0000 N   0  0  0  0  0  0  0  0  0  0  0  0
   16.4265   -8.4164    0.0000 C   0  0  0  0  0  0  0  0  0  0  0  0
   19.1021   -7.5978    0.0000 N   0  0  0  0  0  0  0  0  0  0  0  0
   19.4733   -8.3246    0.0000 C   0  0  0  0  0  0  0  0  0  0  0  0
   19.1405   -9.0700    0.0000 N   0  0  0  0  0  0  0  0  0  0  0  0
   18.3530   -9.2762    0.0000 C   0  0  0  0  0  0  0  0  0  0  0  0
   18.2941   -7.4381    0.0000 C   0  0  0  0  0  0  0  0  0  0  0  0
   17.6941   -8.7847    0.0000 C   0  0  0  0  0  0  0  0  0  0  0  0
   17.6699   -7.9682    0.0000 C   0  0  0  0  0  0  0  0  0  0  0  0
   18.0884   -6.6472    0.0000 O   0  0  0  0  0  0  0  0  0  0  0  0
   20.2902   -8.3032    0.0000 N   0  0  0  0  0  0  0  0  0  0  0  0
   18.1968  -10.0783    0.0000 O   0  0  0  0  0  0  0  0  0  0  0  0
   20.7172   -9.0000    0.0000 C   0  0  0  0  0  0  0  0  0  0  0  0
   21.5341   -8.9786    0.0000 C   0  0  0  0  0  0  0  0  0  0  0  0
   21.9611   -9.6754    0.0000 C   0  0  0  0  0  0  0  0  0  0  0  0
   22.7780   -9.6540    0.0000 C   0  0  0  0  0  0  0  0  0  0  0  0
   23.2050  -10.3508    0.0000 C   0  0  0  0  0  0  0  0  0  0  0  0
   24.0219  -10.3294    0.0000 C   0  0  0  0  0  0  0  0  0  0  0  0
   24.4488  -11.0262    0.0000 C   0  0  0  0  0  0  0  0  0  0  0  0
   25.2658  -11.0048    0.0000 C   0  0  0  0  0  0  0  0  0  0  0  0
   16.6229   -9.8220    0.0000 C   0  0  0  0  0  0  0  0  0  0  0  0
   15.8331  -10.0227    0.0000 O   0  0  0  0  0  0  0  0  0  0  0  0
   15.7806  -10.8382    0.0000 C   0  0  0  0  0  0  0  0  0  0  0  0
   16.5400  -11.1402    0.0000 C   0  0  0  0  0  0  0  0  0  0  0  0
   17.0617  -10.5113    0.0000 C   0  0  0  0  0  0  0  0  0  0  0  0
   15.0899  -11.2750    0.0000 C   0  0  0  0  0  0  0  0  0  0  0  0
   14.3663  -10.8953    0.0000 O   0  0  0  0  0  0  0  0  0  0  0  0
   16.7421  -11.9320    0.0000 O   0  0  0  0  0  0  0  0  0  0  0  0
   17.8773  -10.5626    0.0000 O   0  0  0  0  0  0  0  0  0  0  0  0
   25.6927  -11.7016    0.0000 C   0  0  0  0  0  0  0  0  0  0  0  0
   26.5096  -11.6802    0.0000 C   0  0  0  0  0  0  0  0  0  0  0  0
   26.9366  -12.3770    0.0000 C   0  0  0  0  0  0  0  0  0  0  0  0
   27.7535  -12.3556    0.0000 C   0  0  0  0  0  0  0  0  0  0  0  0
   28.1805  -13.0524    0.0000 C   0  0  0  0  0  0  0  0  0  0  0  0
   28.9974  -13.0310    0.0000 C   0  0  0  0  0  0  0  0  0  0  0  0
  1  9  1  0
 10  2  1  0
  2  3  2  0
  3  1  1  0
  4  5  2  0
  5  6  1  0
  6  7  1  0
  4  8  1  0
  7  9  1  0
  8 10  1  0
  9 10  2  0
  8 11  2  0
  5 12  1  0
  7 13  2  0
 12 14  1  0
 14 15  1  0
 15 16  1  0
 16 17  1  0
 17 18  1  0
 18 19  1  0
 19 20  1  0
 20 21  1  0
 22  1  1  1
 22 23  1  0
 23 24  1  0
 24 25  1  0
 25 26  1  0
 26 22  1  0
 24 27  1  1
 27 28  1  0
 25 29  1  6
 26 30  1  6
 21 31  1  0
 31 32  1  0
 32 33  1  0
 33 34  1  0
 34 35  1  0
 35 36  1  0
M  END
> <chembl_id>
CHEMBL3114564

> <chembl_pref_name>
None

$$$$
CHEMBL3103515
     RDKit          2D

 32 36  0  0  0  0  0  0  0  0999 V2000
   20.1425  -10.6142    0.0000 C   0  0  0  0  0  0  0  0  0  0  0  0
   20.1414  -11.4423    0.0000 C   0  0  0  0  0  0  0  0  0  0  0  0
   20.8569  -11.8556    0.0000 C   0  0  0  0  0  0  0  0  0  0  0  0
   20.8550  -10.2010    0.0000 C   0  0  0  0  0  0  0  0  0  0  0  0
   21.5711  -10.6105    0.0000 C   0  0  0  0  0  0  0  0  0  0  0  0
   21.5714  -11.4423    0.0000 C   0  0  0  0  0  0  0  0  0  0  0  0
   22.3626  -11.6991    0.0000 O   0  0  0  0  0  0  0  0  0  0  0  0
   22.8514  -11.0260    0.0000 C   0  0  0  0  0  0  0  0  0  0  0  0
   22.3621  -10.3532    0.0000 N   0  0  0  0  0  0  0  0  0  0  0  0
   23.6738  -11.0243    0.0000 C   0  0  0  0  0  0  0  0  0  0  0  0
   24.0864  -11.7410    0.0000 C   0  0  0  0  0  0  0  0  0  0  0  0
   24.9114  -11.7410    0.0000 C   0  0  0  0  0  0  0  0  0  0  0  0
   24.0836  -10.3112    0.0000 C   0  0  0  0  0  0  0  0  0  0  0  0
   20.8521   -9.3714    0.0000 C   0  0  0  0  0  0  0  0  0  0  0  0
   21.5660   -8.9564    0.0000 O   0  0  0  0  0  0  0  0  0  0  0  0
   20.1358   -8.9607    0.0000 O   0  0  0  0  0  0  0  0  0  0  0  0
   20.1333   -8.1349    0.0000 C   0  0  0  0  0  0  0  0  0  0  0  0
   23.6695   -9.5969    0.0000 O   0  0  0  0  0  0  0  0  0  0  0  0
   24.9067  -10.3099    0.0000 C   0  0  0  0  0  0  0  0  0  0  0  0
   25.3197  -11.0234    0.0000 C   0  0  0  0  0  0  0  0  0  0  0  0
   26.1422  -11.0215    0.0000 C   0  0  0  0  0  0  0  0  0  0  0  0
   26.5527  -10.3069    0.0000 C   0  0  0  0  0  0  0  0  0  0  0  0
   26.1347   -9.5926    0.0000 C   0  0  0  0  0  0  0  0  0  0  0  0
   25.3135   -9.5981    0.0000 C   0  0  0  0  0  0  0  0  0  0  0  0
   26.5431   -8.8750    0.0000 O   0  0  0  0  0  0  0  0  0  0  0  0
   27.3689   -8.8697    0.0000 C   0  0  0  0  0  0  0  0  0  0  0  0
   27.7772   -8.1521    0.0000 C   0  0  0  0  0  0  0  0  0  0  0  0
   28.6014   -8.1507    0.0000 C   0  0  0  0  0  0  0  0  0  0  0  0
   29.0097   -7.4339    0.0000 C   0  0  0  0  0  0  0  0  0  0  0  0
   28.5923   -6.7204    0.0000 C   0  0  0  0  0  0  0  0  0  0  0  0
   27.7623   -6.7282    0.0000 C   0  0  0  0  0  0  0  0  0  0  0  0
   27.3577   -7.4456    0.0000 C   0  0  0  0  0  0  0  0  0  0  0  0
  1  2  2  0
  2  3  1  0
  3  6  2  0
  5  4  2  0
  4  1  1  0
  5  6  1  0
  6  7  1  0
  7  8  1  0
  8  9  2  0
  9  5  1  0
 10 11  2  0
 11 12  1  0
 12 20  2  0
 13 10  1  0
  8 10  1  0
 13 19  2  0
 14 15  2  0
 14 16  1  0
  4 14  1  0
 16 17  1  0
 13 18  1  0
 19 20  1  0
 20 21  1  0
 21 22  2  0
 22 23  1  0
 23 24  2  0
 24 19  1  0
 23 25  1  0
 25 26  1  0
 26 27  1  0
 27 28  2  0
 28 29  1  0
 29 30  2  0
 30 31  1  0
 31 32  2  0
 32 27  1  0
M  END
> <chembl_id>
CHEMBL3103515

> <chembl_pref_name>
None

$$$$
CHEMBL551131
     RDKit          2D

 31 34  0  0  0  0  0  0  0  0999 V2000
   -1.8184   -4.9787    0.0000 C   0  0  0  0  0  0  0  0  0  0  0  0
   -1.8184   -5.8037    0.0000 C   0  0  0  0  0  0  0  0  0  0  0  0
   -1.1039   -6.2162    0.0000 C   0  0  0  0  0  0  0  0  0  0  0  0
   -1.1039   -4.5662    0.0000 C   0  0  0  0  0  0  0  0  0  0  0  0
   -0.3895   -4.9787    0.0000 C   0  0  0  0  0  0  0  0  0  0  0  0
   -0.3895   -5.8037    0.0000 C   0  0  0  0  0  0  0  0  0  0  0  0
    0.3250   -6.2162    0.0000 O   0  0  0  0  0  0  0  0  0  0  0  0
    1.0395   -5.8037    0.0000 C   0  0  0  0  0  0  0  0  0  0  0  0
    1.0395   -4.9787    0.0000 C   0  0  0  0  0  0  0  0  0  0  0  0
    0.3250   -4.5662    0.0000 C   0  0  0  0  0  0  0  0  0  0  0  0
    1.7540   -6.2162    0.0000 C   0  0  0  0  0  0  0  0  0  0  0  0
    2.4684   -5.8037    0.0000 C   0  0  0  0  0  0  0  0  0  0  0  0
    3.1829   -6.2162    0.0000 C   0  0  0  0  0  0  0  0  0  0  0  0
    1.7540   -7.0412    0.0000 C   0  0  0  0  0  0  0  0  0  0  0  0
    1.7540   -4.5662    0.0000 O   0  0  0  0  0  0  0  0  0  0  0  0
    0.3250   -3.7412    0.0000 O   0  0  0  0  0  0  0  0  0  0  0  0
   -1.1039   -3.7412    0.0000 O   0  0  0  0  0  0  0  0  0  0  0  0
   -2.5329   -6.2162    0.0000 O   0  0  0  0  0  0  0  0  0  0  0  0
    2.4684   -7.4537    0.0000 C   0  0  0  0  0  0  0  0  0  0  0  0
    3.1829   -7.0412    0.0000 C   0  0  0  0  0  0  0  0  0  0  0  0
   -3.2473   -5.8037    0.0000 C   0  0  0  0  0  0  0  0  0  0  0  0
   -3.9618   -6.2162    0.0000 C   0  0  0  0  0  0  0  0  0  0  0  0
   -3.9618   -7.0412    0.0000 C   0  0  0  0  0  0  0  0  0  0  0  0
   -4.6763   -7.4537    0.0000 C   0  0  0  0  0  0  0  0  0  0  0  0
   -5.3908   -7.0412    0.0000 C   0  0  0  0  0  0  0  0  0  0  0  0
   -5.3908   -6.2162    0.0000 C   0  0  0  0  0  0  0  0  0  0  0  0
   -4.6763   -5.8037    0.0000 C   0  0  0  0  0  0  0  0  0  0  0  0
    2.4684   -8.2787    0.0000 O   0  0  0  0  0  0  0  0  0  0  0  0
    3.8974   -7.4537    0.0000 O   0  0  0  0  0  0  0  0  0  0  0  0
   -6.1052   -5.8037    0.0000 C   0  0  0  0  0  0  0  0  0  0  0  0
   -6.8197   -5.3912    0.0000 N   0  0  0  0  0  0  0  0  0  0  0  0
 14 11  1  0
  1  2  2  0
  9 15  1  0
  5  4  2  0
 10 16  2  0
  4  1  1  0
  4 17  1  0
  5 10  1  0
  2 18  1  0
 19 20  1  0
  6  7  1  0
  7  8  1  0
  8  9  2  0
 18 21  1  0
  9 10  1  0
 21 22  1  0
  5  6  1  0
 22 23  2  0
  8 11  1  0
 23 24  1  0
 24 25  2  0
 11 12  2  0
 25 26  1  0
  2  3  1  0
 26 27  2  0
 27 22  1  0
 12 13  1  0
 19 28  1  0
 13 20  2  0
 20 29  1  0
  3  6  2  0
 19 14  2  0
 30 31  3  0
 26 30  1  0
M  END
> <chembl_id>
CHEMBL551131

> <chembl_pref_name>
None

$$$$
CHEMBL1527520
     RDKit          2D

 17 19  0  0  0  0  0  0  0  0999 V2000
   -2.1865   -0.8155    0.0000 O   0  0  0  0  0  0  0  0  0  0  0  0
    0.3319   -2.1665    0.0000 O   0  0  0  0  0  0  0  0  0  0  0  0
    1.5465   -1.4137    0.0000 O   0  0  0  0  0  0  0  0  0  0  0  0
   -0.5374   -0.7640    0.0000 N   0  0  0  0  0  0  0  0  0  0  0  0
    0.2426    0.6900    0.0000 C   0  0  0  0  0  0  0  0  0  0  0  0
   -0.5820    0.6643    0.0000 C   0  0  0  0  0  0  0  0  0  0  0  0
    0.6772   -0.0112    0.0000 C   0  0  0  0  0  0  0  0  0  0  0  0
   -0.9720   -0.0627    0.0000 C   0  0  0  0  0  0  0  0  0  0  0  0
    0.2872   -0.7382    0.0000 C   0  0  0  0  0  0  0  0  0  0  0  0
   -1.7966   -0.0885    0.0000 C   0  0  0  0  0  0  0  0  0  0  0  0
    0.7752    1.3201    0.0000 C   0  0  0  0  0  0  0  0  0  0  0  0
    1.4785    0.1854    0.0000 C   0  0  0  0  0  0  0  0  0  0  0  0
   -1.0166    1.3655    0.0000 C   0  0  0  0  0  0  0  0  0  0  0  0
    0.7219   -1.4395    0.0000 C   0  0  0  0  0  0  0  0  0  0  0  0
    1.5390    1.0082    0.0000 C   0  0  0  0  0  0  0  0  0  0  0  0
   -2.2312    0.6127    0.0000 C   0  0  0  0  0  0  0  0  0  0  0  0
   -1.8412    1.3397    0.0000 C   0  0  0  0  0  0  0  0  0  0  0  0
  1 10  1  0
  2 14  2  0
  3 14  1  0
  4  8  1  0
  4  9  1  0
  5  6  1  0
  5  7  1  0
  5 11  1  0
  6  8  1  0
  6 13  2  0
  7  9  1  0
  7 12  1  0
  8 10  2  0
  9 14  1  0
 10 16  1  0
 11 15  2  0
 12 15  1  0
 13 17  1  0
 16 17  2  0
M  END
> <chembl_id>
CHEMBL1527520

> <chembl_pref_name>
None

$$$$
CHEMBL4068770
     RDKit          2D

 32 34  0  0  0  0  0  0  0  0999 V2000
    4.1314  -10.1323    0.0000 O   0  0  0  0  0  0  0  0  0  0  0  0
    3.7269   -9.4266    0.0000 S   0  0  0  0  0  0  0  0  0  0  0  0
    3.3179  -10.1297    0.0000 O   0  0  0  0  0  0  0  0  0  0  0  0
   11.8039   -7.0865    0.0000 O   0  0  0  0  0  0  0  0  0  0  0  0
   12.2166   -7.7963    0.0000 S   0  0  0  0  0  0  0  0  0  0  0  0
   12.6250   -7.0840    0.0000 O   0  0  0  0  0  0  0  0  0  0  0  0
    7.2680   -8.1967    0.0000 C   0  0  0  0  0  0  0  0  0  0  0  0
    7.2680   -9.0139    0.0000 N   0  0  0  0  0  0  0  0  0  0  0  0
    7.9733   -9.4183    0.0000 C   0  0  0  0  0  0  0  0  0  0  0  0
    8.6786   -9.0139    0.0000 C   0  0  0  0  0  0  0  0  0  0  0  0
    8.6786   -8.1967    0.0000 N   0  0  0  0  0  0  0  0  0  0  0  0
    7.9733   -7.7840    0.0000 C   0  0  0  0  0  0  0  0  0  0  0  0
    9.3875   -7.7902    0.0000 C   0  0  0  0  0  0  0  0  0  0  0  0
   10.0940   -8.2008    0.0000 C   0  0  0  0  0  0  0  0  0  0  0  0
   10.8029   -7.7943    0.0000 C   0  0  0  0  0  0  0  0  0  0  0  0
   11.5094   -8.2050    0.0000 N   0  0  0  0  0  0  0  0  0  0  0  0
   12.9248   -8.2091    0.0000 C   0  0  0  0  0  0  0  0  0  0  0  0
   12.9172   -9.0273    0.0000 C   0  0  0  0  0  0  0  0  0  0  0  0
   13.6229   -9.4379    0.0000 C   0  0  0  0  0  0  0  0  0  0  0  0
   14.3328   -9.0313    0.0000 C   0  0  0  0  0  0  0  0  0  0  0  0
   14.3325   -8.2099    0.0000 C   0  0  0  0  0  0  0  0  0  0  0  0
   13.6263   -7.8030    0.0000 C   0  0  0  0  0  0  0  0  0  0  0  0
    6.5609   -9.4235    0.0000 C   0  0  0  0  0  0  0  0  0  0  0  0
    5.8526   -9.0159    0.0000 C   0  0  0  0  0  0  0  0  0  0  0  0
    5.1455   -9.4255    0.0000 C   0  0  0  0  0  0  0  0  0  0  0  0
    4.4372   -9.0180    0.0000 N   0  0  0  0  0  0  0  0  0  0  0  0
    3.0218   -9.0200    0.0000 C   0  0  0  0  0  0  0  0  0  0  0  0
    3.0199   -8.2038    0.0000 C   0  0  0  0  0  0  0  0  0  0  0  0
    2.3125   -7.7963    0.0000 C   0  0  0  0  0  0  0  0  0  0  0  0
    1.6066   -8.2060    0.0000 C   0  0  0  0  0  0  0  0  0  0  0  0
    1.6111   -9.0274    0.0000 C   0  0  0  0  0  0  0  0  0  0  0  0
    2.3162   -9.4312    0.0000 C   0  0  0  0  0  0  0  0  0  0  0  0
  2  1  2  0
  3  2  2  0
  5  4  2  0
  6  5  2  0
  7  8  1  0
  7 12  1  0
  8  9  1  0
  9 10  1  0
 10 11  1  0
 11 12  1  0
 11 13  1  0
 13 14  1  0
 14 15  1  0
 15 16  1  0
 16  5  1  0
  5 17  1  0
 17 18  2  0
 18 19  1  0
 19 20  2  0
 20 21  1  0
 21 22  2  0
 22 17  1  0
  8 23  1  0
 23 24  1  0
 24 25  1  0
 25 26  1  0
 26  2  1  0
  2 27  1  0
 27 28  2  0
 28 29  1  0
 29 30  2  0
 30 31  1  0
 31 32  2  0
 32 27  1  0
M  END
> <chembl_id>
CHEMBL4068770

> <chembl_pref_name>
None

$$$$
CHEMBL1372751
     RDKit          2D

 34 39  0  0  0  0  0  0  0  0999 V2000
   -3.0849    2.2068    0.0000 O   0  0  0  0  0  0  0  0  0  0  0  0
   -2.4175    4.3417    0.0000 O   0  0  0  0  0  0  0  0  0  0  0  0
    2.6701    2.2837    0.0000 O   0  0  0  0  0  0  0  0  0  0  0  0
   -0.9023    1.8712    0.0000 N   0  0  0  0  0  0  0  0  0  0  0  0
   -0.9023    3.5212    0.0000 N   0  0  0  0  0  0  0  0  0  0  0  0
    1.9556    1.0462    0.0000 N   0  0  0  0  0  0  0  0  0  0  0  0
    1.9556   -0.6038    0.0000 N   0  0  0  0  0  0  0  0  0  0  0  0
   -1.6168    2.2837    0.0000 C   0  0  0  0  0  0  0  0  0  0  0  0
   -1.6168    3.1087    0.0000 C   0  0  0  0  0  0  0  0  0  0  0  0
   -0.1878    2.2837    0.0000 C   0  0  0  0  0  0  0  0  0  0  0  0
   -0.1878    3.1087    0.0000 C   0  0  0  0  0  0  0  0  0  0  0  0
   -2.3312    1.8712    0.0000 C   0  0  0  0  0  0  0  0  0  0  0  0
   -2.3312    3.5212    0.0000 C   0  0  0  0  0  0  0  0  0  0  0  0
    1.2411    2.2837    0.0000 C   0  0  0  0  0  0  0  0  0  0  0  0
    0.5267    1.8712    0.0000 C   0  0  0  0  0  0  0  0  0  0  0  0
    0.5267    3.5212    0.0000 C   0  0  0  0  0  0  0  0  0  0  0  0
    1.9556    1.8712    0.0000 C   0  0  0  0  0  0  0  0  0  0  0  0
    1.2411    3.1087    0.0000 C   0  0  0  0  0  0  0  0  0  0  0  0
   -2.4175    1.0508    0.0000 C   0  0  0  0  0  0  0  0  0  0  0  0
   -3.0849    3.1857    0.0000 C   0  0  0  0  0  0  0  0  0  0  0  0
    2.6701    0.6337    0.0000 C   0  0  0  0  0  0  0  0  0  0  0  0
    1.2411    0.6337    0.0000 C   0  0  0  0  0  0  0  0  0  0  0  0
   -3.6369    1.5937    0.0000 C   0  0  0  0  0  0  0  0  0  0  0  0
   -3.2244    0.8792    0.0000 C   0  0  0  0  0  0  0  0  0  0  0  0
   -3.2244    4.5133    0.0000 C   0  0  0  0  0  0  0  0  0  0  0  0
   -3.6369    3.7988    0.0000 C   0  0  0  0  0  0  0  0  0  0  0  0
    2.6701   -0.1913    0.0000 C   0  0  0  0  0  0  0  0  0  0  0  0
    1.2411   -0.1913    0.0000 C   0  0  0  0  0  0  0  0  0  0  0  0
    1.9556   -1.4288    0.0000 C   0  0  0  0  0  0  0  0  0  0  0  0
    2.6701   -1.8413    0.0000 C   0  0  0  0  0  0  0  0  0  0  0  0
    1.2411   -1.8413    0.0000 C   0  0  0  0  0  0  0  0  0  0  0  0
    2.6701   -2.6663    0.0000 C   0  0  0  0  0  0  0  0  0  0  0  0
    1.2411   -2.6663    0.0000 C   0  0  0  0  0  0  0  0  0  0  0  0
    1.9556   -3.0788    0.0000 C   0  0  0  0  0  0  0  0  0  0  0  0
  1 12  1  0
  1 23  1  0
  2 13  1  0
  2 25  1  0
  3 17  2  0
  4  8  2  0
  4 10  1  0
  5  9  2  0
  5 11  1  0
  6 17  1  0
  6 21  1  0
  6 22  1  0
  7 27  1  0
  7 28  1  0
  7 29  1  0
  8  9  1  0
  8 12  1  0
  9 13  1  0
 10 11  1  0
 10 15  2  0
 11 16  2  0
 12 19  2  0
 13 20  2  0
 14 15  1  0
 14 17  1  0
 14 18  2  0
 16 18  1  0
 19 24  1  0
 20 26  1  0
 21 27  1  0
 22 28  1  0
 23 24  2  0
 25 26  2  0
 29 30  2  0
 29 31  1  0
 30 32  1  0
 31 33  2  0
 32 34  2  0
 33 34  1  0
M  END
> <chembl_id>
CHEMBL1372751

> <chembl_pref_name>
None

$$$$
CHEMBL4061362
     RDKit          2D

 30 33  0  0  0  0  0  0  0  0999 V2000
   18.0143   -6.2890    0.0000 C   0  0  0  0  0  0  0  0  0  0  0  0
   17.5318   -5.6303    0.0000 C   0  0  0  0  0  0  0  0  0  0  0  0
   17.7786   -4.8506    0.0000 C   0  0  0  0  0  0  0  0  0  0  0  0
   17.1146   -4.3771    0.0000 N   0  0  0  0  0  0  0  0  0  0  0  0
   16.4563   -4.8598    0.0000 C   0  0  0  0  0  0  0  0  0  0  0  0
   16.7146   -5.6345    0.0000 C   0  0  0  0  0  0  0  0  0  0  0  0
   15.6765   -4.6130    0.0000 C   0  0  0  0  0  0  0  0  0  0  0  0
   15.5018   -3.8164    0.0000 C   0  0  0  0  0  0  0  0  0  0  0  0
   14.7220   -3.5696    0.0000 C   0  0  0  0  0  0  0  0  0  0  0  0
   14.1170   -4.1194    0.0000 C   0  0  0  0  0  0  0  0  0  0  0  0
   14.2958   -4.9161    0.0000 C   0  0  0  0  0  0  0  0  0  0  0  0
   15.0715   -5.1670    0.0000 C   0  0  0  0  0  0  0  0  0  0  0  0
   17.1105   -3.5600    0.0000 C   0  0  0  0  0  0  0  0  0  0  0  0
   17.8113   -3.1484    0.0000 C   0  0  0  0  0  0  0  0  0  0  0  0
   17.8072   -2.3312    0.0000 C   0  0  0  0  0  0  0  0  0  0  0  0
   17.0981   -1.9256    0.0000 C   0  0  0  0  0  0  0  0  0  0  0  0
   16.3932   -2.3373    0.0000 C   0  0  0  0  0  0  0  0  0  0  0  0
   16.3973   -3.1544    0.0000 C   0  0  0  0  0  0  0  0  0  0  0  0
   18.5533   -4.5963    0.0000 O   0  0  0  0  0  0  0  0  0  0  0  0
   18.8309   -6.2590    0.0000 C   0  0  0  0  0  0  0  0  0  0  0  0
   19.2609   -6.9544    0.0000 C   0  0  0  0  0  0  0  0  0  0  0  0
   20.0768   -6.9248    0.0000 C   0  0  0  0  0  0  0  0  0  0  0  0
   20.4600   -6.2020    0.0000 C   0  0  0  0  0  0  0  0  0  0  0  0
   20.0212   -5.5076    0.0000 C   0  0  0  0  0  0  0  0  0  0  0  0
   19.2068   -5.5406    0.0000 C   0  0  0  0  0  0  0  0  0  0  0  0
   21.2785   -6.1685    0.0000 C   0  0  0  0  0  0  0  0  0  0  0  0
   21.7137   -6.8602    0.0000 O   0  0  0  0  0  0  0  0  0  0  0  0
   21.6599   -5.4458    0.0000 O   0  0  0  0  0  0  0  0  0  0  0  0
   21.3323   -7.5829    0.0000 C   0  0  0  0  0  0  0  0  0  0  0  0
   21.7675   -8.2746    0.0000 C   0  0  0  0  0  0  0  0  0  0  0  0
  1  2  2  0
  2  3  1  0
  3  4  1  0
  4  5  1  0
  5  6  2  0
  2  6  1  0
  5  7  1  0
  7  8  2  0
  8  9  1  0
  9 10  2  0
 10 11  1  0
 11 12  2  0
  7 12  1  0
  4 13  1  0
 13 14  2  0
 14 15  1  0
 15 16  2  0
 16 17  1  0
 17 18  2  0
 13 18  1  0
  3 19  2  0
  1 20  1  0
 20 21  2  0
 21 22  1  0
 22 23  2  0
 23 24  1  0
 24 25  2  0
 25 20  1  0
 26 27  1  0
 26 28  2  0
 23 26  1  0
 27 29  1  0
 29 30  1  0
M  END
> <chembl_id>
CHEMBL4061362

> <chembl_pref_name>
None

$$$$
CHEMBL1610160
     RDKit          2D

 32 35  0  0  0  0  0  0  0  0999 V2000
   -3.2357   -1.9346    0.0000 O   0  0  0  0  0  0  0  0  0  0  0  0
   -3.7903   -0.2276    0.0000 O   0  0  0  0  0  0  0  0  0  0  0  0
   -0.6204   -1.8484    0.0000 O   0  0  0  0  0  0  0  0  0  0  0  0
   -2.7831   -4.9493    0.0000 O   0  0  0  0  0  0  0  0  0  0  0  0
   -2.3383    0.0024    0.0000 N   0  0  0  0  0  0  0  0  0  0  0  0
   -1.6238    1.2399    0.0000 N   0  0  0  0  0  0  0  0  0  0  0  0
   -1.6708   -0.4826    0.0000 C   0  0  0  0  0  0  0  0  0  0  0  0
   -1.9258   -1.2672    0.0000 C   0  0  0  0  0  0  0  0  0  0  0  0
   -2.7508   -1.2672    0.0000 C   0  0  0  0  0  0  0  0  0  0  0  0
   -3.0057   -0.4826    0.0000 C   0  0  0  0  0  0  0  0  0  0  0  0
   -0.8862   -0.2276    0.0000 C   0  0  0  0  0  0  0  0  0  0  0  0
   -1.4408   -1.9346    0.0000 C   0  0  0  0  0  0  0  0  0  0  0  0
   -2.3383    0.8274    0.0000 C   0  0  0  0  0  0  0  0  0  0  0  0
   -1.7764   -2.6883    0.0000 C   0  0  0  0  0  0  0  0  0  0  0  0
   -0.7147    0.5793    0.0000 C   0  0  0  0  0  0  0  0  0  0  0  0
   -0.2731   -0.7797    0.0000 C   0  0  0  0  0  0  0  0  0  0  0  0
   -3.0527    1.2399    0.0000 C   0  0  0  0  0  0  0  0  0  0  0  0
   -1.2915   -3.3557    0.0000 C   0  0  0  0  0  0  0  0  0  0  0  0
   -2.5969   -2.7745    0.0000 C   0  0  0  0  0  0  0  0  0  0  0  0
    0.6830    0.2823    0.0000 C   0  0  0  0  0  0  0  0  0  0  0  0
    0.0699    0.8343    0.0000 C   0  0  0  0  0  0  0  0  0  0  0  0
    0.5115   -0.5247    0.0000 C   0  0  0  0  0  0  0  0  0  0  0  0
   -1.6238    2.0649    0.0000 C   0  0  0  0  0  0  0  0  0  0  0  0
   -3.0527    2.0649    0.0000 C   0  0  0  0  0  0  0  0  0  0  0  0
   -1.6270   -4.1094    0.0000 C   0  0  0  0  0  0  0  0  0  0  0  0
   -2.9324   -3.5282    0.0000 C   0  0  0  0  0  0  0  0  0  0  0  0
   -2.4475   -4.1957    0.0000 C   0  0  0  0  0  0  0  0  0  0  0  0
   -2.3383    2.4774    0.0000 C   0  0  0  0  0  0  0  0  0  0  0  0
    1.4677    0.5372    0.0000 C   0  0  0  0  0  0  0  0  0  0  0  0
    2.0808   -0.0148    0.0000 C   0  0  0  0  0  0  0  0  0  0  0  0
    1.6392    1.3442    0.0000 C   0  0  0  0  0  0  0  0  0  0  0  0
   -2.2981   -5.6168    0.0000 C   0  0  0  0  0  0  0  0  0  0  0  0
  1  9  1  0
  2 10  2  0
  3 12  2  0
  4 27  1  0
  4 32  1  0
  5  7  1  0
  5 10  1  0
  5 13  1  0
  6 13  1  0
  6 23  2  0
  7  8  1  0
  7 11  1  0
  8  9  2  0
  8 12  1  0
  9 10  1  0
 11 15  2  0
 11 16  1  0
 12 14  1  0
 13 17  2  0
 14 18  2  0
 14 19  1  0
 15 21  1  0
 16 22  2  0
 17 24  1  0
 18 25  1  0
 19 26  2  0
 20 21  2  0
 20 22  1  0
 20 29  1  0
 23 28  1  0
 24 28  2  0
 25 27  2  0
 26 27  1  0
 29 30  1  0
 29 31  1  0
M  END
> <chembl_id>
CHEMBL1610160

> <chembl_pref_name>
None

$$$$
CHEMBL3976975
     RDKit          2D

 27 31  0  0  0  0  0  0  0  0999 V2000
   13.2213  -15.3548    0.0000 C   0  0  0  0  0  0  0  0  0  0  0  0
   12.5112  -15.7585    0.0000 N   0  0  0  0  0  0  0  0  0  0  0  0
   11.8073  -15.3451    0.0000 C   0  0  0  0  0  0  0  0  0  0  0  0
   11.8136  -14.5279    0.0000 C   0  0  0  0  0  0  0  0  0  0  0  0
   12.5237  -14.1242    0.0000 C   0  0  0  0  0  0  0  0  0  0  0  0
   13.2317  -14.5377    0.0000 N   0  0  0  0  0  0  0  0  0  0  0  0
   11.0396  -14.2675    0.0000 C   0  0  0  0  0  0  0  0  0  0  0  0
   10.5511  -14.9246    0.0000 C   0  0  0  0  0  0  0  0  0  0  0  0
   11.0269  -15.5898    0.0000 S   0  0  0  0  0  0  0  0  0  0  0  0
    9.7418  -14.8344    0.0000 C   0  0  0  0  0  0  0  0  0  0  0  0
    9.4169  -14.0829    0.0000 C   0  0  0  0  0  0  0  0  0  0  0  0
    9.9013  -13.4258    0.0000 C   0  0  0  0  0  0  0  0  0  0  0  0
   10.7106  -13.5201    0.0000 C   0  0  0  0  0  0  0  0  0  0  0  0
   12.5341  -13.3071    0.0000 N   0  0  0  0  0  0  0  0  0  0  0  0
   13.2442  -12.9034    0.0000 N   0  0  0  0  0  0  0  0  0  0  0  0
   13.2505  -12.0862    0.0000 C   0  0  0  0  0  0  0  0  0  0  0  0
   12.5466  -11.6728    0.0000 C   0  0  0  0  0  0  0  0  0  0  0  0
   13.9669  -10.8695    0.0000 N   0  0  0  0  0  0  0  0  0  0  0  0
   13.9606  -11.6866    0.0000 C   0  0  0  0  0  0  0  0  0  0  0  0
   14.6644  -12.1001    0.0000 C   0  0  0  0  0  0  0  0  0  0  0  0
   15.3746  -11.6964    0.0000 C   0  0  0  0  0  0  0  0  0  0  0  0
   15.3850  -10.8792    0.0000 C   0  0  0  0  0  0  0  0  0  0  0  0
   16.0951  -10.4755    0.0000 C   0  0  0  0  0  0  0  0  0  0  0  0
   16.1013   -9.6584    0.0000 C   0  0  0  0  0  0  0  0  0  0  0  0
   15.3975   -9.2449    0.0000 C   0  0  0  0  0  0  0  0  0  0  0  0
   14.6874   -9.6486    0.0000 C   0  0  0  0  0  0  0  0  0  0  0  0
   14.6770  -10.4658    0.0000 C   0  0  0  0  0  0  0  0  0  0  0  0
  1  2  1  0
  2  3  2  0
  3  4  1  0
  4  5  2  0
  5  6  1  0
  1  6  2  0
  7  8  2  0
  8  9  1  0
 10 11  1  0
 11 12  1  0
 12 13  1  0
  7 13  1  0
  8 10  1  0
  3  9  1  0
  4  7  1  0
 14 15  1  0
 16 17  1  0
 18 19  2  0
 19 20  1  0
 20 21  2  0
 21 22  1  0
 22 23  2  0
 23 24  1  0
 24 25  2  0
 25 26  1  0
 26 27  2  0
 18 27  1  0
 22 27  1  0
 16 19  1  0
 15 16  2  0
  5 14  1  0
M  END
> <chembl_id>
CHEMBL3976975

> <chembl_pref_name>
None

$$$$
CHEMBL129795
     RDKit          2D

 19 20  0  0  0  0  0  0  0  0999 V2000
    0.9768    2.6430    0.0000 C   0  0  0  0  0  0  0  0  0  0  0  0
    1.6912    2.2305    0.0000 C   0  0  0  0  0  0  0  0  0  0  0  0
    1.6912    1.4055    0.0000 C   0  0  0  0  0  0  0  0  0  0  0  0
    0.9768    0.9930    0.0000 C   0  0  0  0  0  0  0  0  0  0  0  0
    0.2623    1.4055    0.0000 C   0  0  0  0  0  0  0  0  0  0  0  0
    0.2623    2.2305    0.0000 C   0  0  0  0  0  0  0  0  0  0  0  0
    0.9768    0.1680    0.0000 C   0  0  0  0  0  0  0  0  0  0  0  0
    0.2623   -0.2445    0.0000 C   0  0  0  0  0  0  0  0  0  0  0  0
    0.2623   -1.0695    0.0000 C   0  0  0  0  0  0  0  0  0  0  0  0
   -0.4522    0.9930    0.0000 O   0  0  0  0  0  0  0  0  0  0  0  0
   -0.4522   -1.4820    0.0000 C   0  0  0  0  0  0  0  0  0  0  0  0
   -0.4522   -2.3070    0.0000 C   0  0  0  0  0  0  0  0  0  0  0  0
   -1.1666   -2.7195    0.0000 C   0  0  0  0  0  0  0  0  0  0  0  0
   -1.8811   -2.3070    0.0000 C   0  0  0  0  0  0  0  0  0  0  0  0
   -1.8811   -1.4820    0.0000 C   0  0  0  0  0  0  0  0  0  0  0  0
   -1.1666   -1.0695    0.0000 C   0  0  0  0  0  0  0  0  0  0  0  0
    1.6912   -0.2445    0.0000 O   0  0  0  0  0  0  0  0  0  0  0  0
   -2.5956   -2.7195    0.0000 O   0  0  0  0  0  0  0  0  0  0  0  0
    0.9768    3.4680    0.0000 O   0  0  0  0  0  0  0  0  0  0  0  0
  1  2  2  0
  1  6  1  0
  1 19  1  0
  2  3  1  0
  3  4  2  0
  4  5  1  0
  4  7  1  0
  5  6  2  0
  5 10  1  0
  7  8  1  0
  7 17  2  0
  8  9  2  0
 11  9  1  0
 11 12  2  0
 11 16  1  0
 12 13  1  0
 13 14  2  0
 14 15  1  0
 14 18  1  0
 15 16  2  0
M  END
> <chembl_id>
CHEMBL129795

> <chembl_pref_name>
ISOLIQUIRITIGENIN

$$$$
CHEMBL1323110
     RDKit          2D

 32 36  0  0  0  0  0  0  0  0999 V2000
    0.3884   -0.6143    0.0000 Cl  0  0  0  0  0  0  0  0  0  0  0  0
   -2.8045    3.2176    0.0000 O   0  0  0  0  0  0  0  0  0  0  0  0
   -1.0488    3.5907    0.0000 O   0  0  0  0  0  0  0  0  0  0  0  0
   -2.9921    0.6076    0.0000 O   0  0  0  0  0  0  0  0  0  0  0  0
   -5.8499    1.4326    0.0000 O   0  0  0  0  0  0  0  0  0  0  0  0
    1.1585    2.7038    0.0000 O   0  0  0  0  0  0  0  0  0  0  0  0
   -5.8499    3.0826    0.0000 O   0  0  0  0  0  0  0  0  0  0  0  0
   -0.9719    2.1226    0.0000 N   0  0  0  0  0  0  0  0  0  0  0  0
   -1.5239    1.5095    0.0000 C   0  0  0  0  0  0  0  0  0  0  0  0
   -2.2776    1.8451    0.0000 C   0  0  0  0  0  0  0  0  0  0  0  0
   -2.1914    2.6655    0.0000 C   0  0  0  0  0  0  0  0  0  0  0  0
   -1.3844    2.8371    0.0000 C   0  0  0  0  0  0  0  0  0  0  0  0
   -2.9921    1.4326    0.0000 C   0  0  0  0  0  0  0  0  0  0  0  0
   -1.3524    0.7025    0.0000 C   0  0  0  0  0  0  0  0  0  0  0  0
   -3.7065    1.8451    0.0000 C   0  0  0  0  0  0  0  0  0  0  0  0
   -0.1514    2.0364    0.0000 C   0  0  0  0  0  0  0  0  0  0  0  0
   -0.5678    0.4476    0.0000 C   0  0  0  0  0  0  0  0  0  0  0  0
   -4.4210    1.4326    0.0000 C   0  0  0  0  0  0  0  0  0  0  0  0
   -1.9655    0.1505    0.0000 C   0  0  0  0  0  0  0  0  0  0  0  0
   -5.1355    1.8451    0.0000 C   0  0  0  0  0  0  0  0  0  0  0  0
    0.3335    2.7038    0.0000 C   0  0  0  0  0  0  0  0  0  0  0  0
   -3.7065    2.6701    0.0000 C   0  0  0  0  0  0  0  0  0  0  0  0
   -5.1355    2.6701    0.0000 C   0  0  0  0  0  0  0  0  0  0  0  0
   -0.3962   -0.3594    0.0000 C   0  0  0  0  0  0  0  0  0  0  0  0
   -4.4210    3.0826    0.0000 C   0  0  0  0  0  0  0  0  0  0  0  0
   -1.7940   -0.6565    0.0000 C   0  0  0  0  0  0  0  0  0  0  0  0
   -1.0093   -0.9114    0.0000 C   0  0  0  0  0  0  0  0  0  0  0  0
    0.0786    3.4884    0.0000 C   0  0  0  0  0  0  0  0  0  0  0  0
   -6.5644    1.8451    0.0000 C   0  0  0  0  0  0  0  0  0  0  0  0
   -6.5644    2.6701    0.0000 C   0  0  0  0  0  0  0  0  0  0  0  0
    1.4135    3.4884    0.0000 C   0  0  0  0  0  0  0  0  0  0  0  0
    0.7460    3.9733    0.0000 C   0  0  0  0  0  0  0  0  0  0  0  0
  1 24  1  0
  2 11  1  0
  3 12  2  0
  4 13  2  0
  5 20  1  0
  5 29  1  0
  6 21  1  0
  6 31  1  0
  7 23  1  0
  7 30  1  0
  8  9  1  0
  8 12  1  0
  8 16  1  0
  9 10  1  0
  9 14  1  0
 10 11  2  0
 10 13  1  0
 11 12  1  0
 13 15  1  0
 14 17  1  0
 14 19  2  0
 15 18  1  0
 15 22  2  0
 16 21  1  0
 17 24  2  0
 18 20  2  0
 19 26  1  0
 20 23  1  0
 21 28  2  0
 22 25  1  0
 23 25  2  0
 24 27  1  0
 26 27  2  0
 28 32  1  0
 29 30  1  0
 31 32  2  0
M  END
> <chembl_id>
CHEMBL1323110

> <chembl_pref_name>
None

$$$$
CHEMBL4462427
     RDKit          2D

 16 18  0  0  0  0  0  0  0  0999 V2000
    4.0101   -1.5470    0.0000 N   0  0  0  0  0  0  0  0  0  0  0  0
    3.3471   -1.0648    0.0000 N   0  0  0  0  0  0  0  0  0  0  0  0
    2.6884   -1.5470    0.0000 C   0  0  0  0  0  0  0  0  0  0  0  0
    3.7557   -2.3237    0.0000 C   0  0  0  0  0  0  0  0  0  0  0  0
    2.9386   -2.3237    0.0000 N   0  0  0  0  0  0  0  0  0  0  0  0
    2.6860   -3.1009    0.0000 N   0  0  0  0  0  0  0  0  0  0  0  0
    3.3471   -3.5813    0.0000 C   0  0  0  0  0  0  0  0  0  0  0  0
    4.0082   -3.1009    0.0000 S   0  0  0  0  0  0  0  0  0  0  0  0
    3.3472   -4.3985    0.0000 C   0  0  0  0  0  0  0  0  0  0  0  0
    2.6397   -4.8038    0.0000 C   0  0  0  0  0  0  0  0  0  0  0  0
    2.6394   -5.6202    0.0000 C   0  0  0  0  0  0  0  0  0  0  0  0
    3.3477   -6.0296    0.0000 C   0  0  0  0  0  0  0  0  0  0  0  0
    4.0577   -5.6166    0.0000 C   0  0  0  0  0  0  0  0  0  0  0  0
    4.0546   -4.8015    0.0000 C   0  0  0  0  0  0  0  0  0  0  0  0
    4.7603   -4.3895    0.0000 O   0  0  0  0  0  0  0  0  0  0  0  0
    5.4700   -4.7947    0.0000 C   0  0  0  0  0  0  0  0  0  0  0  0
  4  1  2  0
  1  2  1  0
  2  3  2  0
  3  5  1  0
  4  5  1  0
  5  6  1  0
  6  7  2  0
  7  8  1  0
  8  4  1  0
  7  9  1  0
  9 10  2  0
 10 11  1  0
 11 12  2  0
 12 13  1  0
 13 14  2  0
 14  9  1  0
 14 15  1  0
 15 16  1  0
M  END
> <chembl_id>
CHEMBL4462427

> <chembl_pref_name>
None

$$$$
CHEMBL2368688
     RDKit          2D

 35 36  0  0  0  0  0  0  0  0999 V2000
    6.3445    0.0000    0.0000 Na  0  0  0  0  0 15  0  0  0  0  0  0
    0.6883   -2.0521    0.0000 N   0  0  0  0  0  0  0  0  0  0  0  0
    1.4729   -2.3071    0.0000 C   0  0  0  0  0  0  0  0  0  0  0  0
    1.4729   -3.1321    0.0000 C   0  0  0  0  0  0  0  0  0  0  0  0
    0.4333   -1.2675    0.0000 C   0  0  0  0  0  0  0  0  0  0  0  0
    2.9222   -1.9763    0.0000 N   0  0  0  0  0  0  0  0  0  0  0  0
    2.1179   -1.7927    0.0000 C   0  0  0  0  0  0  0  0  0  0  0  0
   -2.1811    2.9081    0.0000 P   0  0  0  0  0  0  0  0  0  0  0  0
    2.9222   -3.4629    0.0000 N   0  0  0  0  0  0  0  0  0  0  0  0
    0.6883   -3.3870    0.0000 N   0  0  0  0  0  0  0  0  0  0  0  0
    2.1179   -3.6465    0.0000 C   0  0  0  0  0  0  0  0  0  0  0  0
    3.2802   -2.7196    0.0000 C   0  0  0  0  0  0  0  0  0  0  0  0
    0.9182   -0.6001    0.0000 C   0  0  0  0  0  0  0  0  0  0  0  0
    0.2033   -2.7196    0.0000 C   0  0  0  0  0  0  0  0  0  0  0  0
   -0.3513   -1.0126    0.0000 O   0  0  0  0  0  0  0  0  0  0  0  0
   -2.0949    3.7286    0.0000 O   0  0  0  0  0  0  0  0  0  0  0  0
   -2.2674    2.0877    0.0000 O   0  0  0  0  0  0  0  0  0  0  0  0
   -2.7623    4.2135    0.0000 P   0  0  0  0  0  0  0  0  0  0  0  0
   -1.5999    1.6027    0.0000 P   0  0  0  0  0  0  0  0  0  0  0  0
   -0.3513   -0.1876    0.0000 C   0  0  0  0  0  0  0  0  0  0  0  0
    0.4333    0.0674    0.0000 C   0  0  0  0  0  0  0  0  0  0  0  0
   -1.0187    0.2973    0.0000 C   0  0  0  0  0  0  0  0  0  0  0  0
    4.1052   -2.7196    0.0000 N   0  0  0  0  0  0  0  0  0  0  0  0
   -1.3607    2.8219    0.0000 O   0  0  0  0  0  0  0  0  0  0  0  0
   -0.9325    1.1178    0.0000 O   0  0  0  0  0  0  0  0  0  0  0  0
   -3.4298    4.6985    0.0000 O   0  0  0  0  0  0  0  0  0  0  0  0
   -2.2774    4.8810    0.0000 O   0  0  0  0  0  0  0  0  0  0  0  0
   -1.1150    2.2702    0.0000 O   0  0  0  0  0  0  0  0  0  0  0  0
    1.9343   -0.9884    0.0000 N   0  0  0  0  0  0  0  0  0  0  0  0
   -3.0016    2.9944    0.0000 O   0  0  0  0  0  0  0  0  0  0  0  0
    1.9343   -4.4508    0.0000 N   0  0  0  0  0  0  0  0  0  0  0  0
    1.7432   -0.6001    0.0000 O   0  0  0  0  0  0  0  0  0  0  0  0
   -3.2473    3.5461    0.0000 O   0  0  0  0  0  0  0  0  0  0  0  0
   -2.0849    0.9353    0.0000 O   0  0  0  0  0  0  0  0  0  0  0  0
    0.6883    0.8520    0.0000 O   0  0  0  0  0  0  0  0  0  0  0  0
  3  2  1  0
  4  3  2  0
  5  2  1  1
  6  7  2  0
  7  3  1  0
  8 17  1  0
  9 11  2  0
 10 14  2  0
 11  4  1  0
 12  6  1  0
 13  5  1  0
 14  2  1  0
  5 15  1  0
 16  8  1  0
 17 19  1  0
 18 16  1  0
 19 25  1  0
 20 15  1  0
 21 13  1  0
 20 22  1  1
 23 12  2  0
 24  8  2  0
 25 22  1  0
 26 18  1  0
 27 18  2  0
 28 19  2  0
 29  7  1  0
 30  8  1  0
 31 11  1  0
 13 32  1  6
 33 18  1  0
 34 19  1  0
 21 35  1  6
  4 10  1  0
 20 21  1  0
  9 12  1  0
M  CHG  2   1   1  26  -1
M  END
> <chembl_id>
CHEMBL2368688

> <chembl_pref_name>
None

$$$$
CHEMBL2059078
     RDKit          2D

 41 45  0  0  0  0  0  0  0  0999 V2000
   12.7733   -2.9172    0.0000 O   0  0  0  0  0  0  0  0  0  0  0  0
   13.4956   -3.3289    0.0000 C   0  0  0  0  0  0  0  0  0  0  0  0
   14.2026   -2.9071    0.0000 C   0  0  0  0  0  0  0  0  0  0  0  0
   14.1980   -2.0842    0.0000 O   0  0  0  0  0  0  0  0  0  0  0  0
   14.9186   -3.3188    0.0000 C   0  0  0  0  0  0  0  0  0  0  0  0
   15.6256   -2.9012    0.0000 O   0  0  0  0  0  0  0  0  0  0  0  0
   14.9232   -4.1417    0.0000 C   0  0  0  0  0  0  0  0  0  0  0  0
   15.6363   -4.5452    0.0000 O   0  0  0  0  0  0  0  0  0  0  0  0
   14.2160   -4.5572    0.0000 C   0  0  0  0  0  0  0  0  0  0  0  0
   13.5002   -4.1518    0.0000 O   0  0  0  0  0  0  0  0  0  0  0  0
   14.2221   -5.3783    0.0000 C   0  0  0  0  0  0  0  0  0  0  0  0
   13.5087   -5.7937    0.0000 O   0  0  0  0  0  0  0  0  0  0  0  0
   10.6654   -1.1489    0.0000 C   0  0  0  0  0  0  0  0  0  0  0  0
   11.4968   -1.1626    0.0000 C   0  0  0  0  0  0  0  0  0  0  0  0
   11.7353   -1.9478    0.0000 C   0  0  0  0  0  0  0  0  0  0  0  0
   12.5333   -2.1348    0.0000 C   0  0  0  0  0  0  0  0  0  0  0  0
   13.0954   -1.5309    0.0000 O   0  0  0  0  0  0  0  0  0  0  0  0
   12.8579   -0.7435    0.0000 C   0  0  0  0  0  0  0  0  0  0  0  0
   12.0510   -0.5559    0.0000 C   0  0  0  0  0  0  0  0  0  0  0  0
   11.0625   -2.4237    0.0000 C   0  0  0  0  0  0  0  0  0  0  0  0
   10.3969   -1.9362    0.0000 C   0  0  0  0  0  0  0  0  0  0  0  0
   10.3046   -2.7525    0.0000 O   0  0  0  0  0  0  0  0  0  0  0  0
   11.4766   -3.1399    0.0000 C   0  0  0  0  0  0  0  0  0  0  0  0
   11.0590   -3.8546    0.0000 O   0  0  0  0  0  0  0  0  0  0  0  0
   10.1920   -0.4782    0.0000 O   0  0  0  0  0  0  0  0  0  0  0  0
   10.5950    0.2442    0.0000 C   0  0  0  0  0  0  0  0  0  0  0  0
   10.1734    0.9579    0.0000 C   0  0  0  0  0  0  0  0  0  0  0  0
   11.4247    0.2529    0.0000 O   0  0  0  0  0  0  0  0  0  0  0  0
   10.5853    1.6770    0.0000 C   0  0  0  0  0  0  0  0  0  0  0  0
   10.1632    2.3864    0.0000 C   0  0  0  0  0  0  0  0  0  0  0  0
    9.3357    2.3787    0.0000 C   0  0  0  0  0  0  0  0  0  0  0  0
    8.9322    1.6585    0.0000 C   0  0  0  0  0  0  0  0  0  0  0  0
    9.3522    0.9485    0.0000 C   0  0  0  0  0  0  0  0  0  0  0  0
   10.5712    3.1021    0.0000 O   0  0  0  0  0  0  0  0  0  0  0  0
    8.9173    3.0912    0.0000 O   0  0  0  0  0  0  0  0  0  0  0  0
   11.8987   -2.7560    0.0000 H   0  0  0  0  0  0  0  0  0  0  0  0
   11.1699   -0.4039    0.0000 H   0  0  0  0  0  0  0  0  0  0  0  0
    9.5987   -1.7547    0.0000 H   0  0  0  0  0  0  0  0  0  0  0  0
    9.3247    3.8075    0.0000 C   0  0  0  0  0  0  0  0  0  0  0  0
   11.3955    3.1067    0.0000 C   0  0  0  0  0  0  0  0  0  0  0  0
   13.4894   -2.5022    0.0000 H   0  0  0  0  0  0  0  0  0  0  0  0
  2  3  1  0
  3  4  1  6
  3  5  1  0
  5  6  1  1
  5  7  1  0
  7  8  1  6
  7  9  1  0
  9 10  1  0
  9 11  1  1
 11 12  1  0
  2 10  1  0
 20 15  1  0
 14 13  1  0
 13 21  1  0
 14 15  1  0
 14 19  1  0
 15 16  1  0
 16 17  1  0
 17 18  1  0
 18 19  2  0
 21 20  1  0
 22 21  1  0
 20 22  1  0
 20 23  1  6
 23 24  1  0
 13 25  1  1
 25 26  1  0
 26 27  1  0
 26 28  2  0
 27 29  2  0
 29 30  1  0
 30 31  2  0
 31 32  1  0
 32 33  2  0
 33 27  1  0
 30 34  1  0
 31 35  1  0
 16  1  1  1
 15 36  1  1
 14 37  1  1
 21 38  1  6
 35 39  1  0
 34 40  1  0
  2  1  1  0
  2 41  1  6
M  END
> <chembl_id>
CHEMBL2059078

> <chembl_pref_name>
None

$$$$
CHEMBL3196732
     RDKit          2D

 31 34  0  0  0  0  0  0  0  0999 V2000
    2.3383   -1.3500    0.0000 O   0  0  0  0  0  0  0  0  0  0  0  0
    1.0351   -3.6026    0.0000 O   0  0  0  0  0  0  0  0  0  0  0  0
   -1.0432   -3.5994    0.0000 O   0  0  0  0  0  0  0  0  0  0  0  0
   10.3916    7.5036    0.0000 O   0  0  0  0  0  0  0  0  0  0  0  0
   -0.0031   -3.0008    0.0000 N   0  0  0  0  0  0  0  0  0  0  0  0
    2.5951    3.0039    0.0000 N   0  0  0  0  0  0  0  0  0  0  0  0
    7.7911    6.0075    0.0000 N   0  0  0  0  0  0  0  0  0  0  0  0
    0.0000   -1.5000    0.0000 C   0  0  0  0  0  0  0  0  0  0  0  0
    1.2990   -0.7500    0.0000 C   0  0  0  0  0  0  0  0  0  0  0  0
    1.2990    0.7500    0.0000 C   0  0  0  0  0  0  0  0  0  0  0  0
   -1.2990    0.7500    0.0000 C   0  0  0  0  0  0  0  0  0  0  0  0
   -1.2990   -0.7500    0.0000 C   0  0  0  0  0  0  0  0  0  0  0  0
    0.0000    1.5000    0.0000 C   0  0  0  0  0  0  0  0  0  0  0  0
    2.5972    1.5031    0.0000 C   0  0  0  0  0  0  0  0  0  0  0  0
   -2.6003    1.4977    0.0000 C   0  0  0  0  0  0  0  0  0  0  0  0
    3.8933    3.7570    0.0000 C   0  0  0  0  0  0  0  0  0  0  0  0
    6.4914    5.2571    0.0000 C   0  0  0  0  0  0  0  0  0  0  0  0
   -3.8990    0.7455    0.0000 C   0  0  0  0  0  0  0  0  0  0  0  0
    3.8933    5.2571    0.0000 C   0  0  0  0  0  0  0  0  0  0  0  0
    5.1925    3.0071    0.0000 C   0  0  0  0  0  0  0  0  0  0  0  0
    5.1924    6.0071    0.0000 C   0  0  0  0  0  0  0  0  0  0  0  0
    6.4915    3.7571    0.0000 C   0  0  0  0  0  0  0  0  0  0  0  0
    7.7935    7.5076    0.0000 C   0  0  0  0  0  0  0  0  0  0  0  0
    9.0891    5.2556    0.0000 C   0  0  0  0  0  0  0  0  0  0  0  0
   -5.2007    1.4909    0.0000 C   0  0  0  0  0  0  0  0  0  0  0  0
   -3.8939   -0.7546    0.0000 C   0  0  0  0  0  0  0  0  0  0  0  0
    9.0937    8.2556    0.0000 C   0  0  0  0  0  0  0  0  0  0  0  0
   10.3893    6.0036    0.0000 C   0  0  0  0  0  0  0  0  0  0  0  0
   -6.4972    0.7364    0.0000 C   0  0  0  0  0  0  0  0  0  0  0  0
   -5.1903   -1.5091    0.0000 C   0  0  0  0  0  0  0  0  0  0  0  0
   -6.4920   -0.7636    0.0000 C   0  0  0  0  0  0  0  0  0  0  0  0
  1  9  1  0
  2  5  1  0
  3  5  2  0
  4 27  1  0
  4 28  1  0
  5  8  1  0
  6 14  2  0
  6 16  1  0
  7 17  1  0
  7 23  1  0
  7 24  1  0
  8  9  1  0
  8 12  2  0
  9 10  2  0
 10 13  1  0
 10 14  1  0
 11 12  1  0
 11 13  2  0
 11 15  1  0
 15 18  1  0
 16 19  2  0
 16 20  1  0
 17 21  2  0
 17 22  1  0
 18 25  2  0
 18 26  1  0
 19 21  1  0
 20 22  2  0
 23 27  1  0
 24 28  1  0
 25 29  1  0
 26 30  2  0
 29 31  2  0
 30 31  1  0
M  CHG  2   2  -1   5   1
M  END
> <chembl_id>
CHEMBL3196732

> <chembl_pref_name>
None

$$$$
CHEMBL405639
     RDKit          2D

 20 22  0  0  0  0  0  0  0  0999 V2000
    8.9484  -14.0336    0.0000 C   0  0  0  0  0  0  0  0  0  0  0  0
    8.2375  -15.2741    0.0000 C   0  0  0  0  0  0  0  0  0  0  0  0
    8.2364  -16.1012    0.0000 C   0  0  0  0  0  0  0  0  0  0  0  0
    8.9510  -16.5140    0.0000 C   0  0  0  0  0  0  0  0  0  0  0  0
    8.9492  -14.8615    0.0000 C   0  0  0  0  0  0  0  0  0  0  0  0
    9.6643  -15.2705    0.0000 C   0  0  0  0  0  0  0  0  0  0  0  0
    9.6645  -16.1012    0.0000 C   0  0  0  0  0  0  0  0  0  0  0  0
   10.4548  -16.3578    0.0000 O   0  0  0  0  0  0  0  0  0  0  0  0
   10.9429  -15.6855    0.0000 C   0  0  0  0  0  0  0  0  0  0  0  0
   10.4544  -15.0136    0.0000 N   0  0  0  0  0  0  0  0  0  0  0  0
   11.7645  -15.6838    0.0000 C   0  0  0  0  0  0  0  0  0  0  0  0
   12.1764  -16.3995    0.0000 C   0  0  0  0  0  0  0  0  0  0  0  0
   13.0004  -16.3995    0.0000 C   0  0  0  0  0  0  0  0  0  0  0  0
   13.4133  -15.6847    0.0000 C   0  0  0  0  0  0  0  0  0  0  0  0
   12.9963  -14.9682    0.0000 C   0  0  0  0  0  0  0  0  0  0  0  0
   12.1737  -14.9717    0.0000 C   0  0  0  0  0  0  0  0  0  0  0  0
   11.7591  -14.2587    0.0000 O   0  0  0  0  0  0  0  0  0  0  0  0
    9.6622  -13.6206    0.0000 O   0  0  0  0  0  0  0  0  0  0  0  0
    8.2338  -13.6219    0.0000 N   0  0  0  0  0  0  0  0  0  0  0  0
    8.2330  -12.7971    0.0000 C   0  0  0  0  0  0  0  0  0  0  0  0
 10  6  1  0
  5  1  1  0
  5  2  1  0
  6  7  1  0
 11 12  2  0
 12 13  1  0
  3  4  1  0
 13 14  2  0
  4  7  2  0
 14 15  1  0
  2  3  2  0
 15 16  2  0
 16 11  1  0
  9 11  1  0
  6  5  2  0
 16 17  1  0
  7  8  1  0
  1 18  2  0
  8  9  1  0
  1 19  1  0
  9 10  2  0
 19 20  1  0
M  END
> <chembl_id>
CHEMBL405639

> <chembl_pref_name>
None

$$$$
CHEMBL44518
     RDKit          2D

 30 33  0  0  0  0  0  0  0  0999 V2000
    9.7000   -7.0792    0.0000 C   0  0  0  0  0  0  0  0  0  0  0  0
    1.8500   -6.6167    0.0000 C   0  0  0  0  0  0  0  0  0  0  0  0
   10.4542   -6.7417    0.0000 N   0  0  0  0  0  0  0  0  0  0  0  0
    1.8542   -5.7792    0.0000 N   0  0  0  0  0  0  0  0  0  0  0  0
    9.7875   -7.8917    0.0000 N   0  0  0  0  0  0  0  0  0  0  0  0
    1.1292   -7.0167    0.0000 N   0  0  0  0  0  0  0  0  0  0  0  0
    2.5542   -7.0292    0.0000 N   0  0  0  0  0  0  0  0  0  0  0  0
    8.9875   -6.6542    0.0000 N   0  0  0  0  0  0  0  0  0  0  0  0
    1.1375   -5.3792    0.0000 C   0  0  0  0  0  0  0  0  0  0  0  0
   11.0042   -7.3542    0.0000 C   0  0  0  0  0  0  0  0  0  0  0  0
    0.4250   -5.7792    0.0000 C   0  0  0  0  0  0  0  0  0  0  0  0
   10.5917   -8.0667    0.0000 C   0  0  0  0  0  0  0  0  0  0  0  0
    3.2750   -6.6167    0.0000 C   0  0  0  0  0  0  0  0  0  0  0  0
    8.2750   -7.0667    0.0000 C   0  0  0  0  0  0  0  0  0  0  0  0
    3.2792   -5.7917    0.0000 O   0  0  0  0  0  0  0  0  0  0  0  0
    8.2667   -7.8917    0.0000 O   0  0  0  0  0  0  0  0  0  0  0  0
    1.1375   -4.5417    0.0000 C   0  0  0  0  0  0  0  0  0  0  0  0
   11.8250   -7.3667    0.0000 C   0  0  0  0  0  0  0  0  0  0  0  0
   11.0000   -8.7792    0.0000 C   0  0  0  0  0  0  0  0  0  0  0  0
   -0.2875   -5.3792    0.0000 C   0  0  0  0  0  0  0  0  0  0  0  0
    3.9875   -7.0417    0.0000 C   0  0  0  0  0  0  0  0  0  0  0  0
    7.5625   -6.6542    0.0000 C   0  0  0  0  0  0  0  0  0  0  0  0
    6.8417   -7.0542    0.0000 C   0  0  0  0  0  0  0  0  0  0  0  0
    4.7000   -6.6292    0.0000 C   0  0  0  0  0  0  0  0  0  0  0  0
    5.4125   -7.0417    0.0000 C   0  0  0  0  0  0  0  0  0  0  0  0
    6.1292   -6.6417    0.0000 C   0  0  0  0  0  0  0  0  0  0  0  0
   11.8250   -8.7917    0.0000 C   0  0  0  0  0  0  0  0  0  0  0  0
   12.2375   -8.0667    0.0000 C   0  0  0  0  0  0  0  0  0  0  0  0
    0.4250   -4.1292    0.0000 C   0  0  0  0  0  0  0  0  0  0  0  0
   -0.2875   -4.5542    0.0000 C   0  0  0  0  0  0  0  0  0  0  0  0
  2  7  1  0
  3  1  2  0
  4  2  2  0
  5  1  1  0
  6  2  1  0
  7 13  1  0
  8  1  1  0
  9  4  1  0
 10  3  1  0
 11  6  1  0
 12  5  1  0
 13 21  1  0
 14  8  1  0
 15 13  2  0
 16 14  2  0
 17  9  1  0
 18 10  1  0
 19 12  1  0
 20 11  1  0
 21 24  1  0
 22 14  1  0
 23 22  1  0
 24 25  1  0
 25 26  1  0
 26 23  1  0
 27 19  2  0
 28 18  2  0
 29 17  2  0
 30 20  2  0
 10 12  2  0
 27 28  1  0
  9 11  2  0
 29 30  1  0
M  END
> <chembl_id>
CHEMBL44518

> <chembl_pref_name>
None

$$$$
CHEMBL4475987
     RDKit          2D

 33 37  0  0  0  0  0  0  0  0999 V2000
   13.0544   -2.2535    0.0000 C   0  0  0  0  0  0  0  0  0  0  0  0
   13.0544   -3.0707    0.0000 C   0  0  0  0  0  0  0  0  0  0  0  0
   13.7597   -3.4751    0.0000 C   0  0  0  0  0  0  0  0  0  0  0  0
   14.4650   -3.0707    0.0000 N   0  0  0  0  0  0  0  0  0  0  0  0
   14.4650   -2.2535    0.0000 C   0  0  0  0  0  0  0  0  0  0  0  0
   13.7597   -1.8407    0.0000 N   0  0  0  0  0  0  0  0  0  0  0  0
   15.1739   -1.8469    0.0000 S   0  0  0  0  0  0  0  0  0  0  0  0
   12.3455   -1.8469    0.0000 O   0  0  0  0  0  0  0  0  0  0  0  0
   13.7597   -4.2923    0.0000 O   0  0  0  0  0  0  0  0  0  0  0  0
   12.3473   -3.4803    0.0000 C   0  0  0  0  0  0  0  0  0  0  0  0
   12.3485   -4.2975    0.0000 C   0  0  0  0  0  0  0  0  0  0  0  0
   12.7632   -5.5527    0.0000 N   0  0  0  0  0  0  0  0  0  0  0  0
   13.0145   -4.7752    0.0000 C   0  0  0  0  0  0  0  0  0  0  0  0
   11.9459   -5.5539    0.0000 C   0  0  0  0  0  0  0  0  0  0  0  0
   11.6957   -4.7798    0.0000 C   0  0  0  0  0  0  0  0  0  0  0  0
   10.9018   -4.6109    0.0000 C   0  0  0  0  0  0  0  0  0  0  0  0
   10.3574   -5.2150    0.0000 C   0  0  0  0  0  0  0  0  0  0  0  0
   10.6123   -5.9909    0.0000 C   0  0  0  0  0  0  0  0  0  0  0  0
   11.4056   -6.1562    0.0000 C   0  0  0  0  0  0  0  0  0  0  0  0
   13.1805   -6.2554    0.0000 C   0  0  0  0  0  0  0  0  0  0  0  0
   12.7808   -6.9682    0.0000 O   0  0  0  0  0  0  0  0  0  0  0  0
   13.9976   -6.2451    0.0000 C   0  0  0  0  0  0  0  0  0  0  0  0
   14.4126   -6.9485    0.0000 C   0  0  0  0  0  0  0  0  0  0  0  0
   15.2076   -5.5204    0.0000 C   0  0  0  0  0  0  0  0  0  0  0  0
   14.3926   -5.5338    0.0000 C   0  0  0  0  0  0  0  0  0  0  0  0
   15.6295   -6.2252    0.0000 C   0  0  0  0  0  0  0  0  0  0  0  0
   15.2284   -6.9354    0.0000 C   0  0  0  0  0  0  0  0  0  0  0  0
   15.6428   -7.6357    0.0000 C   0  0  0  0  0  0  0  0  0  0  0  0
   16.4581   -7.6270    0.0000 C   0  0  0  0  0  0  0  0  0  0  0  0
   16.8572   -6.9122    0.0000 C   0  0  0  0  0  0  0  0  0  0  0  0
   16.4405   -6.2149    0.0000 C   0  0  0  0  0  0  0  0  0  0  0  0
    9.5578   -5.0463    0.0000 O   0  0  0  0  0  0  0  0  0  0  0  0
    9.3041   -4.2695    0.0000 C   0  0  0  0  0  0  0  0  0  0  0  0
  1  2  1  0
  1  6  1  0
  2  3  1  0
  3  4  1  0
  4  5  1  0
  5  6  1  0
  5  7  2  0
  1  8  2  0
  3  9  2  0
  2 10  2  0
 10 11  1  0
 11 15  1  0
 14 12  1  0
 12 13  1  0
 13 11  2  0
 14 15  2  0
 15 16  1  0
 16 17  2  0
 17 18  1  0
 18 19  2  0
 19 14  1  0
 12 20  1  0
 20 21  2  0
 20 22  1  0
 22 23  2  0
 23 27  1  0
 26 24  1  0
 24 25  2  0
 25 22  1  0
 26 27  1  0
 27 28  2  0
 28 29  1  0
 29 30  2  0
 30 31  1  0
 31 26  2  0
 17 32  1  0
 32 33  1  0
M  END
> <chembl_id>
CHEMBL4475987

> <chembl_pref_name>
None

$$$$
CHEMBL463690
     RDKit          2D

 24 26  0  0  0  0  0  0  0  0999 V2000
   -3.4744   -9.0010    0.0000 C   0  0  0  0  0  0  0  0  0  0  0  0
   -3.4744   -9.8261    0.0000 C   0  0  0  0  0  0  0  0  0  0  0  0
   -2.7618  -10.2324    0.0000 C   0  0  0  0  0  0  0  0  0  0  0  0
   -2.7618   -8.5823    0.0000 C   0  0  0  0  0  0  0  0  0  0  0  0
   -2.0491   -9.0010    0.0000 C   0  0  0  0  0  0  0  0  0  0  0  0
   -2.0526   -9.8261    0.0000 C   0  0  0  0  0  0  0  0  0  0  0  0
   -1.3432  -10.2373    0.0000 C   0  0  0  0  0  0  0  0  0  0  0  0
   -0.6300   -9.8321    0.0000 C   0  0  0  0  0  0  0  0  0  0  0  0
   -0.6264   -9.0071    0.0000 C   0  0  0  0  0  0  0  0  0  0  0  0
   -1.3363   -8.5872    0.0000 C   0  0  0  0  0  0  0  0  0  0  0  0
   -1.3339   -7.7622    0.0000 C   0  0  0  0  0  0  0  0  0  0  0  0
   -2.0565   -8.1760    0.0000 C   0  0  0  0  0  0  0  0  0  0  0  0
   -2.0478   -7.3496    0.0000 C   0  0  0  0  0  0  0  0  0  0  0  0
   -2.0454   -6.5245    0.0000 C   0  0  0  0  0  0  0  0  0  0  0  0
   -1.3815   -6.0427    0.0000 C   0  0  0  0  0  0  0  0  0  0  0  0
   -1.6330   -5.2572    0.0000 C   0  0  0  0  0  0  0  0  0  0  0  0
   -2.4581   -5.2548    0.0000 O   0  0  0  0  0  0  0  0  0  0  0  0
   -2.7139   -6.0390    0.0000 C   0  0  0  0  0  0  0  0  0  0  0  0
    0.0907   -8.5962    0.0000 C   0  0  0  0  0  0  0  0  0  0  0  0
   -2.0606  -10.6470    0.0000 H   0  0  0  0  0  0  0  0  0  0  0  0
   -2.5540  -11.0284    0.0000 C   0  0  0  0  0  0  0  0  0  0  0  0
   -3.3541  -10.8170    0.0000 C   0  0  0  0  0  0  0  0  0  0  0  0
   -4.1498  -10.5993    0.0000 O   0  0  0  0  0  0  0  0  0  0  0  0
   -3.1469  -11.6155    0.0000 O   0  0  0  0  0  0  0  0  0  0  0  0
  5 12  1  1
  1  2  1  0
 11 13  1  0
  1  4  1  0
 13 14  1  0
 14 15  1  0
  2  3  1  0
  3  6  1  0
  5  4  1  0
  5 10  1  0
 15 16  2  0
 16 17  1  0
 17 18  1  0
 18 14  2  0
  6  7  1  0
  9 19  2  0
  7  8  1  0
  6 20  1  6
  8  9  1  0
  3 21  1  6
  9 10  1  0
  3 22  1  0
  5  6  1  0
 22 23  2  0
 10 11  1  1
 22 24  1  0
M  END
> <chembl_id>
CHEMBL463690

> <chembl_pref_name>
LAMBERTIAINC ACID

$$$$
CHEMBL2011808
     RDKit          2D

 18 19  0  0  0  0  0  0  0  0999 V2000
   19.1055   -3.9205    0.0000 C   0  0  0  0  0  0  0  0  0  0  0  0
   19.1043   -4.7479    0.0000 C   0  0  0  0  0  0  0  0  0  0  0  0
   19.8192   -5.1606    0.0000 C   0  0  0  0  0  0  0  0  0  0  0  0
   20.5355   -4.7474    0.0000 C   0  0  0  0  0  0  0  0  0  0  0  0
   20.5326   -3.9169    0.0000 C   0  0  0  0  0  0  0  0  0  0  0  0
   19.8174   -3.5077    0.0000 C   0  0  0  0  0  0  0  0  0  0  0  0
   18.3910   -3.5082    0.0000 N   0  0  0  0  0  0  0  0  0  0  0  0
   17.6767   -3.9208    0.0000 C   0  0  0  0  0  0  0  0  0  0  0  0
   16.9622   -3.5085    0.0000 N   0  0  0  0  0  0  0  0  0  0  0  0
   17.6769   -4.7458    0.0000 O   0  0  0  0  0  0  0  0  0  0  0  0
   16.2478   -3.9212    0.0000 C   0  0  0  0  0  0  0  0  0  0  0  0
   15.5339   -3.5071    0.0000 C   0  0  0  0  0  0  0  0  0  0  0  0
   14.8200   -3.9191    0.0000 C   0  0  0  0  0  0  0  0  0  0  0  0
   14.8197   -4.7449    0.0000 C   0  0  0  0  0  0  0  0  0  0  0  0
   15.5393   -5.1570    0.0000 C   0  0  0  0  0  0  0  0  0  0  0  0
   16.2502   -4.7428    0.0000 C   0  0  0  0  0  0  0  0  0  0  0  0
   15.5348   -2.6822    0.0000 C   0  0  0  0  0  0  0  0  0  0  0  0
   21.2455   -3.5017    0.0000 N   0  0  0  0  0  0  0  0  0  0  0  0
  8  9  1  0
  4  5  1  0
  8 10  2  0
  2  3  1  0
  9 11  1  0
  5  6  2  0
 11 12  2  0
  6  1  1  0
 12 13  1  0
  1  2  2  0
 13 14  2  0
  1  7  1  0
 14 15  1  0
  3  4  2  0
 15 16  2  0
 16 11  1  0
  7  8  1  0
 12 17  1  0
  5 18  1  0
M  END
> <chembl_id>
CHEMBL2011808

> <chembl_pref_name>
None

$$$$
CHEMBL4090115
     RDKit          2D

 40 44  0  0  0  0  0  0  0  0999 V2000
   20.0501   -5.3365    0.0000 O   0  0  0  0  0  0  0  0  0  0  0  0
   19.6456   -4.6308    0.0000 S   0  0  0  0  0  0  0  0  0  0  0  0
   19.2366   -5.3339    0.0000 O   0  0  0  0  0  0  0  0  0  0  0  0
   27.7226   -2.2906    0.0000 O   0  0  0  0  0  0  0  0  0  0  0  0
   28.1353   -3.0005    0.0000 S   0  0  0  0  0  0  0  0  0  0  0  0
   28.5437   -2.2881    0.0000 O   0  0  0  0  0  0  0  0  0  0  0  0
   23.1868   -3.4008    0.0000 C   0  0  0  0  0  0  0  0  0  0  0  0
   23.1868   -4.2180    0.0000 N   0  0  0  0  0  0  0  0  0  0  0  0
   23.8921   -4.6225    0.0000 C   0  0  0  0  0  0  0  0  0  0  0  0
   24.5973   -4.2180    0.0000 C   0  0  0  0  0  0  0  0  0  0  0  0
   24.5973   -3.4008    0.0000 N   0  0  0  0  0  0  0  0  0  0  0  0
   23.8921   -2.9881    0.0000 C   0  0  0  0  0  0  0  0  0  0  0  0
   25.3062   -2.9943    0.0000 C   0  0  0  0  0  0  0  0  0  0  0  0
   26.0127   -3.4050    0.0000 C   0  0  0  0  0  0  0  0  0  0  0  0
   26.7216   -2.9985    0.0000 C   0  0  0  0  0  0  0  0  0  0  0  0
   27.4282   -3.4091    0.0000 N   0  0  0  0  0  0  0  0  0  0  0  0
   28.8436   -3.4133    0.0000 C   0  0  0  0  0  0  0  0  0  0  0  0
   30.2515   -4.2355    0.0000 C   0  0  0  0  0  0  0  0  0  0  0  0
   30.2513   -3.4140    0.0000 C   0  0  0  0  0  0  0  0  0  0  0  0
   29.5450   -3.0072    0.0000 C   0  0  0  0  0  0  0  0  0  0  0  0
   22.4797   -4.6277    0.0000 C   0  0  0  0  0  0  0  0  0  0  0  0
   21.7714   -4.2201    0.0000 C   0  0  0  0  0  0  0  0  0  0  0  0
   21.0642   -4.6297    0.0000 C   0  0  0  0  0  0  0  0  0  0  0  0
   20.3559   -4.2221    0.0000 N   0  0  0  0  0  0  0  0  0  0  0  0
   18.9405   -4.2242    0.0000 C   0  0  0  0  0  0  0  0  0  0  0  0
   18.9386   -3.4080    0.0000 C   0  0  0  0  0  0  0  0  0  0  0  0
   18.2312   -3.0005    0.0000 C   0  0  0  0  0  0  0  0  0  0  0  0
   17.5253   -3.4102    0.0000 C   0  0  0  0  0  0  0  0  0  0  0  0
   18.2349   -4.6354    0.0000 C   0  0  0  0  0  0  0  0  0  0  0  0
   17.5343   -4.2296    0.0000 C   0  0  0  0  0  0  0  0  0  0  0  0
   16.8347   -4.6334    0.0000 C   0  0  0  0  0  0  0  0  0  0  0  0
   16.8345   -5.4429    0.0000 C   0  0  0  0  0  0  0  0  0  0  0  0
   17.5398   -5.8468    0.0000 C   0  0  0  0  0  0  0  0  0  0  0  0
   18.2365   -5.4406    0.0000 C   0  0  0  0  0  0  0  0  0  0  0  0
   29.5416   -4.6420    0.0000 C   0  0  0  0  0  0  0  0  0  0  0  0
   28.8392   -4.2316    0.0000 C   0  0  0  0  0  0  0  0  0  0  0  0
   28.1345   -4.6346    0.0000 C   0  0  0  0  0  0  0  0  0  0  0  0
   28.1312   -5.4479    0.0000 C   0  0  0  0  0  0  0  0  0  0  0  0
   28.8383   -5.8566    0.0000 C   0  0  0  0  0  0  0  0  0  0  0  0
   29.5400   -5.4512    0.0000 C   0  0  0  0  0  0  0  0  0  0  0  0
  2  1  2  0
  3  2  2  0
  5  4  2  0
  6  5  2  0
  7  8  1  0
  7 12  1  0
  8  9  1  0
  9 10  1  0
 10 11  1  0
 11 12  1  0
 11 13  1  0
 13 14  1  0
 14 15  1  0
 15 16  1  0
 16  5  1  0
  5 17  1  0
 17 36  2  0
 35 18  2  0
 18 19  1  0
 19 20  2  0
 20 17  1  0
  8 21  1  0
 21 22  1  0
 22 23  1  0
 23 24  1  0
 24  2  1  0
  2 25  1  0
 25 26  2  0
 26 27  1  0
 27 28  2  0
 28 30  1  0
 29 25  1  0
 29 30  1  0
 30 31  2  0
 31 32  1  0
 32 33  2  0
 33 34  1  0
 34 29  2  0
 35 36  1  0
 36 37  1  0
 37 38  2  0
 38 39  1  0
 39 40  2  0
 40 35  1  0
M  END
> <chembl_id>
CHEMBL4090115

> <chembl_pref_name>
None

$$$$
CHEMBL53835
     RDKit          2D

 18 20  0  0  0  0  0  0  0  0999 V2000
    7.0792   -7.0125    0.0000 N   0  0  0  0  0  0  0  0  0  0  0  0
    7.6042   -6.7125    0.0000 C   0  0  0  0  0  0  0  0  0  0  0  0
    7.6042   -6.1125    0.0000 C   0  0  0  0  0  0  0  0  0  0  0  0
    6.5667   -6.7125    0.0000 C   0  0  0  0  0  0  0  0  0  0  0  0
    6.5667   -6.1125    0.0000 N   0  0  0  0  0  0  0  0  0  0  0  0
    7.0792   -5.8125    0.0000 C   0  0  0  0  0  0  0  0  0  0  0  0
    8.1667   -5.9250    0.0000 N   0  0  0  0  0  0  0  0  0  0  0  0
    8.1792   -6.8917    0.0000 N   0  0  0  0  0  0  0  0  0  0  0  0
    8.5250   -6.4042    0.0000 C   0  0  0  0  0  0  0  0  0  0  0  0
    6.0500   -7.0125    0.0000 N   0  0  0  0  0  0  0  0  0  0  0  0
    7.0792   -5.2125    0.0000 O   0  0  0  0  0  0  0  0  0  0  0  0
    5.5292   -6.7125    0.0000 C   0  0  0  0  0  0  0  0  0  0  0  0
    4.4917   -6.1125    0.0000 C   0  0  0  0  0  0  0  0  0  0  0  0
    3.9750   -5.8125    0.0000 Br  0  0  0  0  0  0  0  0  0  0  0  0
    5.0167   -7.0125    0.0000 C   0  0  0  0  0  0  0  0  0  0  0  0
    5.5292   -6.1125    0.0000 C   0  0  0  0  0  0  0  0  0  0  0  0
    5.0167   -5.8125    0.0000 C   0  0  0  0  0  0  0  0  0  0  0  0
    4.4917   -6.7167    0.0000 C   0  0  0  0  0  0  0  0  0  0  0  0
  2  1  1  0
  3  2  1  0
  4  1  2  0
  5  4  1  0
  6  5  1  0
  7  3  1  0
  8  2  2  0
  9  8  1  0
 10  4  1  0
 11  6  1  0
 12 10  1  0
 13 17  1  0
 14 13  1  0
 15 12  2  0
 16 12  1  0
 17 16  2  0
 18 15  1  0
  3  6  2  0
  9  7  2  0
 18 13  2  0
M  END
> <chembl_id>
CHEMBL53835

> <chembl_pref_name>
None

$$$$
CHEMBL1909748
     RDKit          2D

 30 33  0  0  0  0  0  0  0  0999 V2000
   -1.7860   -0.4113    0.0000 C   0  0  0  0  0  0  0  0  0  0  0  0
   -1.7853    0.4137    0.0000 C   0  0  0  0  0  0  0  0  0  0  0  0
   -1.0705    0.8256    0.0000 C   0  0  0  0  0  0  0  0  0  0  0  0
   -0.3563    0.4125    0.0000 C   0  0  0  0  0  0  0  0  0  0  0  0
    0.3585    0.8244    0.0000 C   0  0  0  0  0  0  0  0  0  0  0  0
    1.0726    0.4113    0.0000 C   0  0  0  0  0  0  0  0  0  0  0  0
    1.0719   -0.4137    0.0000 C   0  0  0  0  0  0  0  0  0  0  0  0
    0.3571   -0.8256    0.0000 C   0  0  0  0  0  0  0  0  0  0  0  0
   -0.3571   -0.4125    0.0000 C   0  0  0  0  0  0  0  0  0  0  0  0
   -1.0719   -0.8244    0.0000 O   0  0  0  0  0  0  0  0  0  0  0  0
   -1.0698    1.6506    0.0000 O   0  0  0  0  0  0  0  0  0  0  0  0
    0.3592    1.6494    0.0000 O   0  0  0  0  0  0  0  0  0  0  0  0
    1.7874    0.8232    0.0000 O   0  0  0  0  0  0  0  0  0  0  0  0
    2.5015    0.4100    0.0000 C   0  0  0  0  0  0  0  0  0  0  0  0
    3.2164    0.8219    0.0000 C   0  0  0  0  0  0  0  0  0  0  0  0
    3.2171    1.6469    0.0000 C   0  0  0  0  0  0  0  0  0  0  0  0
    3.9319    2.0588    0.0000 C   0  0  0  0  0  0  0  0  0  0  0  0
    4.6460    1.6457    0.0000 C   0  0  0  0  0  0  0  0  0  0  0  0
    4.6453    0.8207    0.0000 C   0  0  0  0  0  0  0  0  0  0  0  0
    3.9305    0.4088    0.0000 C   0  0  0  0  0  0  0  0  0  0  0  0
   -2.5008   -0.8232    0.0000 O   0  0  0  0  0  0  0  0  0  0  0  0
   -3.2149   -0.4100    0.0000 C   0  0  0  0  0  0  0  0  0  0  0  0
   -3.9298   -0.8219    0.0000 C   0  0  0  0  0  0  0  0  0  0  0  0
   -3.9305   -1.6469    0.0000 C   0  0  0  0  0  0  0  0  0  0  0  0
   -4.6453   -2.0588    0.0000 C   0  0  0  0  0  0  0  0  0  0  0  0
   -4.6439   -0.4088    0.0000 C   0  0  0  0  0  0  0  0  0  0  0  0
    5.3594    0.4076    0.0000 Cl  0  0  0  0  0  0  0  0  0  0  0  0
   -5.3587   -0.8207    0.0000 C   0  0  0  0  0  0  0  0  0  0  0  0
   -5.3594   -1.6457    0.0000 C   0  0  0  0  0  0  0  0  0  0  0  0
   -6.0739   -2.0582    0.0000 I   0  0  0  0  0  0  0  0  0  0  0  0
  1  2  2  0
  2  3  1  0
  3  4  1  0
  4  5  1  0
  5  6  2  0
  6  7  1  0
  7  8  2  0
  8  9  1  0
  4  9  2  0
  9 10  1  0
  1 10  1  0
  3 11  2  0
  5 12  1  0
 14 15  1  0
 15 16  1  0
 16 17  2  0
 17 18  1  0
 18 19  2  0
 19 20  1  0
 15 20  2  0
 13 14  1  0
  6 13  1  0
 22 23  1  0
 23 24  1  0
 24 25  2  0
 25 29  1  0
 29 28  2  0
 28 26  1  0
 23 26  2  0
 21 22  1  0
  1 21  1  0
 19 27  1  0
 29 30  1  0
M  END
> <chembl_id>
CHEMBL1909748

> <chembl_pref_name>
None

$$$$
CHEMBL1576490
     RDKit          2D

 25 27  0  0  0  0  0  0  0  0999 V2000
   -0.2153   -2.8870    0.0000 O   0  0  0  0  0  0  0  0  0  0  0  0
   -0.8828   -1.5771    0.0000 O   0  0  0  0  0  0  0  0  0  0  0  0
    2.4761   -4.0804    0.0000 O   0  0  0  0  0  0  0  0  0  0  0  0
   -1.2953   -3.6716    0.0000 N   0  0  0  0  0  0  0  0  0  0  0  0
   -1.5502   -2.8870    0.0000 C   0  0  0  0  0  0  0  0  0  0  0  0
   -0.4703   -3.6716    0.0000 C   0  0  0  0  0  0  0  0  0  0  0  0
   -0.8828   -2.4021    0.0000 C   0  0  0  0  0  0  0  0  0  0  0  0
    1.3200   -4.9203    0.0000 C   0  0  0  0  0  0  0  0  0  0  0  0
    0.0146   -4.3391    0.0000 C   0  0  0  0  0  0  0  0  0  0  0  0
   -2.3348   -2.6321    0.0000 C   0  0  0  0  0  0  0  0  0  0  0  0
    2.1405   -4.8340    0.0000 C   0  0  0  0  0  0  0  0  0  0  0  0
    0.8351   -4.2528    0.0000 C   0  0  0  0  0  0  0  0  0  0  0  0
    0.9845   -5.6740    0.0000 C   0  0  0  0  0  0  0  0  0  0  0  0
    2.6254   -5.5015    0.0000 C   0  0  0  0  0  0  0  0  0  0  0  0
   -2.9479   -3.1841    0.0000 C   0  0  0  0  0  0  0  0  0  0  0  0
    1.4694   -6.3414    0.0000 C   0  0  0  0  0  0  0  0  0  0  0  0
    2.2899   -6.2552    0.0000 C   0  0  0  0  0  0  0  0  0  0  0  0
   -3.7326   -2.9292    0.0000 C   0  0  0  0  0  0  0  0  0  0  0  0
   -3.9041   -2.1222    0.0000 C   0  0  0  0  0  0  0  0  0  0  0  0
   -4.6887   -1.8673    0.0000 C   0  0  0  0  0  0  0  0  0  0  0  0
   -3.2910   -1.5702    0.0000 C   0  0  0  0  0  0  0  0  0  0  0  0
    3.2966   -3.9941    0.0000 C   0  0  0  0  0  0  0  0  0  0  0  0
   -4.8602   -1.0603    0.0000 C   0  0  0  0  0  0  0  0  0  0  0  0
   -3.4625   -0.7632    0.0000 C   0  0  0  0  0  0  0  0  0  0  0  0
   -4.2471   -0.5083    0.0000 C   0  0  0  0  0  0  0  0  0  0  0  0
  1  6  1  0
  1  7  1  0
  2  7  2  0
  3 11  1  0
  3 22  1  0
  4  5  1  0
  4  6  2  0
  5  7  1  0
  5 10  2  0
  6  9  1  0
  8 11  1  0
  8 12  1  0
  8 13  2  0
  9 12  2  0
 10 15  1  0
 11 14  2  0
 13 16  1  0
 14 17  1  0
 15 18  2  0
 16 17  2  0
 18 19  1  0
 19 20  2  0
 19 21  1  0
 20 23  1  0
 21 24  2  0
 23 25  2  0
 24 25  1  0
M  END
> <chembl_id>
CHEMBL1576490

> <chembl_pref_name>
None

$$$$
CHEMBL446271
     RDKit          2D

 54 57  0  0  0  0  0  0  0  0999 V2000
   -4.2208   -5.1208    0.0000 Na  0  0  0  0  0 15  0  0  0  0  0  0
   -0.2917   -4.9667    0.0000 C   0  0  0  0  0  0  0  0  0  0  0  0
    0.5333   -4.9667    0.0000 C   0  0  0  0  0  0  0  0  0  0  0  0
    0.9446   -5.6830    0.0000 C   0  0  0  0  0  0  0  0  0  0  0  0
    1.7660   -5.6849    0.0000 C   0  0  0  0  0  0  0  0  0  0  0  0
    2.1824   -4.9723    0.0000 C   0  0  0  0  0  0  0  0  0  0  0  0
    1.7711   -4.2560    0.0000 C   0  0  0  0  0  0  0  0  0  0  0  0
    0.9435   -4.2523    0.0000 C   0  0  0  0  0  0  0  0  0  0  0  0
    3.0073   -4.9754    0.0000 N   0  0  0  0  0  0  0  0  0  0  0  0
    3.4225   -4.2625    0.0000 C   0  0  0  0  0  0  0  0  0  0  0  0
    4.2486   -4.2701    0.0000 C   0  0  0  0  0  0  0  0  0  0  0  0
    4.6637   -3.5581    0.0000 C   0  0  0  0  0  0  0  0  0  0  0  0
    4.2539   -2.8410    0.0000 C   0  0  0  0  0  0  0  0  0  0  0  0
    3.4246   -2.8406    0.0000 C   0  0  0  0  0  0  0  0  0  0  0  0
    3.0132   -3.5532    0.0000 C   0  0  0  0  0  0  0  0  0  0  0  0
    4.6681   -2.1276    0.0000 S   0  0  0  0  0  0  0  0  0  0  0  0
    5.0750   -1.4083    0.0000 O   0  0  0  0  0  0  0  0  0  0  0  0
    5.3839   -2.5378    0.0000 O   0  0  0  0  0  0  0  0  0  0  0  0
    3.9517   -1.7185    0.0000 O   0  0  0  0  0  0  0  0  0  0  0  0
   -0.7042   -4.2522    0.0000 C   0  0  0  0  0  0  0  0  0  0  0  0
   -0.7042   -5.6811    0.0000 C   0  0  0  0  0  0  0  0  0  0  0  0
   -0.2898   -3.5401    0.0000 C   0  0  0  0  0  0  0  0  0  0  0  0
   -0.7016   -2.8261    0.0000 C   0  0  0  0  0  0  0  0  0  0  0  0
   -1.5275   -2.8257    0.0000 C   0  0  0  0  0  0  0  0  0  0  0  0
   -1.9398   -3.5451    0.0000 C   0  0  0  0  0  0  0  0  0  0  0  0
   -1.5257   -4.2562    0.0000 C   0  0  0  0  0  0  0  0  0  0  0  0
   -1.5283   -5.6784    0.0000 C   0  0  0  0  0  0  0  0  0  0  0  0
   -1.9407   -6.3920    0.0000 C   0  0  0  0  0  0  0  0  0  0  0  0
   -1.5281   -7.1074    0.0000 C   0  0  0  0  0  0  0  0  0  0  0  0
   -0.6989   -7.1048    0.0000 C   0  0  0  0  0  0  0  0  0  0  0  0
   -0.2902   -6.3906    0.0000 C   0  0  0  0  0  0  0  0  0  0  0  0
   -1.9397   -7.8225    0.0000 N   0  0  0  0  0  0  0  0  0  0  0  0
   -2.7647   -7.8236    0.0000 C   0  0  0  0  0  0  0  0  0  0  0  0
   -1.9410   -2.1117    0.0000 N   0  0  0  0  0  0  0  0  0  0  0  0
   -1.5294   -1.3967    0.0000 C   0  0  0  0  0  0  0  0  0  0  0  0
   -0.7042   -1.3982    0.0000 C   0  0  0  0  0  0  0  0  0  0  0  0
   -0.2927   -0.6840    0.0000 C   0  0  0  0  0  0  0  0  0  0  0  0
   -0.7062    0.0309    0.0000 C   0  0  0  0  0  0  0  0  0  0  0  0
   -1.5355    0.0272    0.0000 C   0  0  0  0  0  0  0  0  0  0  0  0
   -1.9432   -0.6876    0.0000 C   0  0  0  0  0  0  0  0  0  0  0  0
   -3.1732   -7.1087    0.0000 C   0  0  0  0  0  0  0  0  0  0  0  0
   -3.9974   -7.1094    0.0000 C   0  0  0  0  0  0  0  0  0  0  0  0
   -4.4098   -7.8250    0.0000 C   0  0  0  0  0  0  0  0  0  0  0  0
   -3.9919   -8.5413    0.0000 C   0  0  0  0  0  0  0  0  0  0  0  0
   -3.1691   -8.5370    0.0000 C   0  0  0  0  0  0  0  0  0  0  0  0
   -4.4105   -6.3953    0.0000 S   0  0  0  0  0  0  0  0  0  0  0  0
   -4.8292   -5.6750    0.0000 O   0  0  0  0  0  0  0  0  0  0  0  0
   -3.6968   -5.9815    0.0000 O   0  0  0  0  0  0  0  0  0  0  0  0
   -5.1201   -6.8162    0.0000 O   0  0  0  0  0  0  0  0  0  0  0  0
   -1.9515    0.7396    0.0000 S   0  0  0  0  0  0  0  0  0  0  0  0
   -2.3708    1.4583    0.0000 O   0  0  0  0  0  0  0  0  0  0  0  0
   -2.6640    0.3238    0.0000 O   0  0  0  0  0  0  0  0  0  0  0  0
   -1.2354    1.1494    0.0000 O   0  0  0  0  0  0  0  0  0  0  0  0
    5.8292   -1.0292    0.0000 Na  0  0  0  0  0 15  0  0  0  0  0  0
 26 20  1  0
 11 12  1  0
 21 27  2  0
 27 28  1  0
 12 13  2  0
 28 29  2  0
  2  3  2  0
 29 30  1  0
 13 14  1  0
 30 31  2  0
 31 21  1  0
  3  8  1  0
 29 32  1  0
 14 15  2  0
 32 33  1  0
 15 10  1  0
 24 34  1  0
  4  5  2  0
 34 35  1  0
 13 16  1  0
 35 36  2  0
  5  6  1  0
 36 37  1  0
 16 17  1  0
 37 38  2  0
  6  7  1  0
 38 39  1  0
 16 18  2  0
 39 40  2  0
 40 35  1  0
  7  8  2  0
 33 41  2  0
 16 19  2  0
 41 42  1  0
  3  4  1  0
 42 43  2  0
  2 20  1  0
 43 44  1  0
  6  9  2  0
 44 45  2  0
 45 33  1  0
  2 21  1  0
 42 46  1  0
 46 47  1  0
 20 22  2  0
 46 48  2  0
  9 10  1  0
 46 49  2  0
 22 23  1  0
 39 50  1  0
 50 51  1  0
 23 24  2  0
 50 52  2  0
 10 11  2  0
 50 53  2  0
 24 25  1  0
 25 26  2  0
M  CHG  4   1   1  17  -1  47  -1  54   1
M  END
> <chembl_id>
CHEMBL446271

> <chembl_pref_name>
None

$$$$
CHEMBL1343163
     RDKit          2D

 29 32  0  0  0  0  0  0  0  0999 V2000
    4.2309   -2.7616    0.0000 O   0  0  0  0  0  0  0  0  0  0  0  0
    3.1510   -5.3411    0.0000 O   0  0  0  0  0  0  0  0  0  0  0  0
    5.5254   -4.5858    0.0000 O   0  0  0  0  0  0  0  0  0  0  0  0
    0.7951   -1.5992    0.0000 O   0  0  0  0  0  0  0  0  0  0  0  0
    1.7650   -2.9341    0.0000 O   0  0  0  0  0  0  0  0  0  0  0  0
    2.9210   -2.0942    0.0000 N   0  0  0  0  0  0  0  0  0  0  0  0
    1.5818   -4.0561    0.0000 N   0  0  0  0  0  0  0  0  0  0  0  0
    3.8184   -4.0312    0.0000 C   0  0  0  0  0  0  0  0  0  0  0  0
    4.4859   -3.5462    0.0000 C   0  0  0  0  0  0  0  0  0  0  0  0
    3.1510   -3.5462    0.0000 C   0  0  0  0  0  0  0  0  0  0  0  0
    3.4059   -2.7616    0.0000 C   0  0  0  0  0  0  0  0  0  0  0  0
    3.8184   -4.8562    0.0000 C   0  0  0  0  0  0  0  0  0  0  0  0
    5.2705   -3.8012    0.0000 C   0  0  0  0  0  0  0  0  0  0  0  0
    2.3664   -3.8012    0.0000 C   0  0  0  0  0  0  0  0  0  0  0  0
    4.4859   -5.3411    0.0000 C   0  0  0  0  0  0  0  0  0  0  0  0
    5.9379   -3.3163    0.0000 C   0  0  0  0  0  0  0  0  0  0  0  0
    2.1005   -2.1804    0.0000 C   0  0  0  0  0  0  0  0  0  0  0  0
    3.4059   -6.1257    0.0000 C   0  0  0  0  0  0  0  0  0  0  0  0
    4.2309   -6.1257    0.0000 C   0  0  0  0  0  0  0  0  0  0  0  0
    6.3504   -4.5858    0.0000 C   0  0  0  0  0  0  0  0  0  0  0  0
    6.6054   -3.8012    0.0000 C   0  0  0  0  0  0  0  0  0  0  0  0
    1.6156   -1.5130    0.0000 C   0  0  0  0  0  0  0  0  0  0  0  0
    0.3102   -0.9318    0.0000 C   0  0  0  0  0  0  0  0  0  0  0  0
    1.9512   -0.7593    0.0000 C   0  0  0  0  0  0  0  0  0  0  0  0
   -0.5103   -1.0180    0.0000 C   0  0  0  0  0  0  0  0  0  0  0  0
    0.6458   -0.1781    0.0000 C   0  0  0  0  0  0  0  0  0  0  0  0
   -0.9952   -0.3506    0.0000 C   0  0  0  0  0  0  0  0  0  0  0  0
    0.1609    0.4893    0.0000 C   0  0  0  0  0  0  0  0  0  0  0  0
   -0.6596    0.4031    0.0000 C   0  0  0  0  0  0  0  0  0  0  0  0
  1  9  1  0
  1 11  1  0
  2 12  1  0
  2 18  1  0
  3 13  1  0
  3 20  1  0
  4 22  1  0
  4 23  1  0
  5 17  2  0
  6 11  1  0
  6 17  1  0
  7 14  3  0
  8  9  2  0
  8 10  1  0
  8 12  1  0
  9 13  1  0
 10 11  2  0
 10 14  1  0
 12 15  2  0
 13 16  2  0
 15 19  1  0
 16 21  1  0
 17 22  1  0
 18 19  2  0
 20 21  2  0
 22 24  1  0
 23 25  2  0
 23 26  1  0
 25 27  1  0
 26 28  2  0
 27 29  2  0
 28 29  1  0
M  END
> <chembl_id>
CHEMBL1343163

> <chembl_pref_name>
None

$$$$
CHEMBL1545427
     RDKit          2D

 26 28  0  0  0  0  0  0  0  0999 V2000
   -0.3661    1.8228    0.0000 S   0  0  0  0  0  0  0  0  0  0  0  0
   -1.7771    0.1983    0.0000 O   0  0  0  0  0  0  0  0  0  0  0  0
   -1.4783   -2.6440    0.0000 O   0  0  0  0  0  0  0  0  0  0  0  0
    0.8337   -0.9641    0.0000 O   0  0  0  0  0  0  0  0  0  0  0  0
   -4.9096   -1.5678    0.0000 O   0  0  0  0  0  0  0  0  0  0  0  0
   -1.7480    3.5452    0.0000 O   0  0  0  0  0  0  0  0  0  0  0  0
   -0.3191    3.5452    0.0000 O   0  0  0  0  0  0  0  0  0  0  0  0
   -1.6277   -1.2228    0.0000 N   0  0  0  0  0  0  0  0  0  0  0  0
   -0.3223   -1.8041    0.0000 N   0  0  0  0  0  0  0  0  0  0  0  0
   -1.0335    3.1327    0.0000 N   0  0  0  0  0  0  0  0  0  0  0  0
   -0.4717   -0.3829    0.0000 C   0  0  0  0  0  0  0  0  0  0  0  0
   -1.2921   -0.4692    0.0000 C   0  0  0  0  0  0  0  0  0  0  0  0
   -1.1428   -1.8903    0.0000 C   0  0  0  0  0  0  0  0  0  0  0  0
    0.0133   -1.0504    0.0000 C   0  0  0  0  0  0  0  0  0  0  0  0
   -2.4482   -1.3091    0.0000 C   0  0  0  0  0  0  0  0  0  0  0  0
   -0.1361    0.3707    0.0000 C   0  0  0  0  0  0  0  0  0  0  0  0
   -0.6210    1.0382    0.0000 C   0  0  0  0  0  0  0  0  0  0  0  0
   -1.0335    2.3077    0.0000 C   0  0  0  0  0  0  0  0  0  0  0  0
   -2.7837   -2.0628    0.0000 C   0  0  0  0  0  0  0  0  0  0  0  0
   -2.9331   -0.6416    0.0000 C   0  0  0  0  0  0  0  0  0  0  0  0
   -1.4460    1.0382    0.0000 C   0  0  0  0  0  0  0  0  0  0  0  0
   -1.7010    1.8228    0.0000 C   0  0  0  0  0  0  0  0  0  0  0  0
   -4.0891   -1.4816    0.0000 C   0  0  0  0  0  0  0  0  0  0  0  0
   -3.6042   -2.1490    0.0000 C   0  0  0  0  0  0  0  0  0  0  0  0
   -3.7536   -0.7279    0.0000 C   0  0  0  0  0  0  0  0  0  0  0  0
   -5.2452   -2.3215    0.0000 C   0  0  0  0  0  0  0  0  0  0  0  0
  1 17  1  0
  1 18  1  0
  2 12  2  0
  3 13  2  0
  4 14  2  0
  5 23  1  0
  5 26  1  0
  6 10  1  0
  7 10  2  0
  8 12  1  0
  8 13  1  0
  8 15  1  0
  9 13  1  0
  9 14  1  0
 10 18  1  0
 11 12  1  0
 11 14  1  0
 11 16  2  0
 15 19  2  0
 15 20  1  0
 16 17  1  0
 17 21  2  0
 18 22  2  0
 19 24  1  0
 20 25  2  0
 21 22  1  0
 23 24  2  0
 23 25  1  0
M  CHG  2   6  -1  10   1
M  END
> <chembl_id>
CHEMBL1545427

> <chembl_pref_name>
None

$$$$
CHEMBL1324375
     RDKit          2D

 35 40  0  0  0  0  0  0  0  0999 V2000
    0.4733   -0.4672    0.0000 O   0  0  0  0  0  0  0  0  0  0  0  0
    3.8811   -2.0697    0.0000 O   0  0  0  0  0  0  0  0  0  0  0  0
    2.6167    0.7703    0.0000 N   0  0  0  0  0  0  0  0  0  0  0  0
    2.5697   -0.9521    0.0000 N   0  0  0  0  0  0  0  0  0  0  0  0
   -0.2412    0.7703    0.0000 N   0  0  0  0  0  0  0  0  0  0  0  0
    1.2348   -0.9521    0.0000 N   0  0  0  0  0  0  0  0  0  0  0  0
    2.3147   -1.7367    0.0000 N   0  0  0  0  0  0  0  0  0  0  0  0
    1.4897   -1.7367    0.0000 N   0  0  0  0  0  0  0  0  0  0  0  0
    1.9022    0.3578    0.0000 C   0  0  0  0  0  0  0  0  0  0  0  0
    1.1877    0.7703    0.0000 C   0  0  0  0  0  0  0  0  0  0  0  0
    1.9022   -0.4672    0.0000 C   0  0  0  0  0  0  0  0  0  0  0  0
    0.4733    0.3578    0.0000 C   0  0  0  0  0  0  0  0  0  0  0  0
    0.4733    2.0078    0.0000 C   0  0  0  0  0  0  0  0  0  0  0  0
    1.1877    1.5953    0.0000 C   0  0  0  0  0  0  0  0  0  0  0  0
   -0.2412    1.5953    0.0000 C   0  0  0  0  0  0  0  0  0  0  0  0
    3.3312    0.3578    0.0000 C   0  0  0  0  0  0  0  0  0  0  0  0
    4.0456    0.7703    0.0000 C   0  0  0  0  0  0  0  0  0  0  0  0
    2.6167    1.5953    0.0000 C   0  0  0  0  0  0  0  0  0  0  0  0
    0.4733    2.8328    0.0000 C   0  0  0  0  0  0  0  0  0  0  0  0
    4.0456    1.5953    0.0000 C   0  0  0  0  0  0  0  0  0  0  0  0
   -0.9557    2.0078    0.0000 C   0  0  0  0  0  0  0  0  0  0  0  0
    3.3543   -0.6972    0.0000 C   0  0  0  0  0  0  0  0  0  0  0  0
   -0.2412    3.2453    0.0000 C   0  0  0  0  0  0  0  0  0  0  0  0
   -0.9557    2.8328    0.0000 C   0  0  0  0  0  0  0  0  0  0  0  0
    3.3312    2.0078    0.0000 C   0  0  0  0  0  0  0  0  0  0  0  0
    3.9674   -1.2492    0.0000 C   0  0  0  0  0  0  0  0  0  0  0  0
    4.7601    0.3578    0.0000 C   0  0  0  0  0  0  0  0  0  0  0  0
    4.7601    2.0078    0.0000 C   0  0  0  0  0  0  0  0  0  0  0  0
    5.4746    0.7703    0.0000 C   0  0  0  0  0  0  0  0  0  0  0  0
    4.7743   -1.0777    0.0000 C   0  0  0  0  0  0  0  0  0  0  0  0
    5.4746    1.5953    0.0000 C   0  0  0  0  0  0  0  0  0  0  0  0
   -0.2412    4.0703    0.0000 C   0  0  0  0  0  0  0  0  0  0  0  0
   -1.6701    3.2453    0.0000 C   0  0  0  0  0  0  0  0  0  0  0  0
    4.6348   -2.4052    0.0000 C   0  0  0  0  0  0  0  0  0  0  0  0
    5.1868   -1.7921    0.0000 C   0  0  0  0  0  0  0  0  0  0  0  0
  1 12  1  0
  2 26  1  0
  2 34  1  0
  3  9  1  0
  3 16  1  0
  3 18  1  0
  4  7  1  0
  4 11  1  0
  4 22  1  0
  5 12  1  0
  5 15  2  0
  6  8  1  0
  6 11  2  0
  7  8  2  0
  9 10  1  0
  9 11  1  0
 10 12  2  0
 10 14  1  0
 13 14  2  0
 13 15  1  0
 13 19  1  0
 15 21  1  0
 16 17  1  0
 17 20  1  0
 17 27  2  0
 18 25  1  0
 19 23  2  0
 20 25  1  0
 20 28  2  0
 21 24  2  0
 22 26  1  0
 23 24  1  0
 23 32  1  0
 24 33  1  0
 26 30  2  0
 27 29  1  0
 28 31  1  0
 29 31  2  0
 30 35  1  0
 34 35  2  0
M  END
> <chembl_id>
CHEMBL1324375

> <chembl_pref_name>
None

$$$$
CHEMBL3144871
     RDKit          2D

 26 29  0  0  0  0  0  0  0  0999 V2000
    4.3312   -1.4840    0.0000 Cl  0  0  0  0  0  0  0  0  0  0  0  0
    1.4733    0.1660    0.0000 S   0  0  0  0  0  0  0  0  0  0  0  0
   -2.4242    2.0305    0.0000 O   0  0  0  0  0  0  0  0  0  0  0  0
   -0.6701    2.2285    0.0000 O   0  0  0  0  0  0  0  0  0  0  0  0
   -2.6541    0.5785    0.0000 N   0  0  0  0  0  0  0  0  0  0  0  0
   -2.1692   -0.0890    0.0000 N   0  0  0  0  0  0  0  0  0  0  0  0
   -0.6701   -0.2465    0.0000 N   0  0  0  0  0  0  0  0  0  0  0  0
   -1.3846    0.9910    0.0000 C   0  0  0  0  0  0  0  0  0  0  0  0
   -1.3846    0.1660    0.0000 C   0  0  0  0  0  0  0  0  0  0  0  0
   -2.1692    1.2459    0.0000 C   0  0  0  0  0  0  0  0  0  0  0  0
   -0.6701    1.4035    0.0000 C   0  0  0  0  0  0  0  0  0  0  0  0
   -3.4791    0.5785    0.0000 C   0  0  0  0  0  0  0  0  0  0  0  0
    0.0443    0.1660    0.0000 C   0  0  0  0  0  0  0  0  0  0  0  0
    0.0443    0.9910    0.0000 C   0  0  0  0  0  0  0  0  0  0  0  0
    0.7588   -0.2465    0.0000 C   0  0  0  0  0  0  0  0  0  0  0  0
   -3.8916   -0.1360    0.0000 C   0  0  0  0  0  0  0  0  0  0  0  0
   -3.8916    1.2929    0.0000 C   0  0  0  0  0  0  0  0  0  0  0  0
   -4.7166   -0.1360    0.0000 C   0  0  0  0  0  0  0  0  0  0  0  0
   -4.7166    1.2929    0.0000 C   0  0  0  0  0  0  0  0  0  0  0  0
    2.1878   -0.2465    0.0000 C   0  0  0  0  0  0  0  0  0  0  0  0
   -5.1291    0.5785    0.0000 C   0  0  0  0  0  0  0  0  0  0  0  0
    2.9022    0.1660    0.0000 C   0  0  0  0  0  0  0  0  0  0  0  0
    2.1878   -1.0715    0.0000 C   0  0  0  0  0  0  0  0  0  0  0  0
    3.6167   -1.0715    0.0000 C   0  0  0  0  0  0  0  0  0  0  0  0
    3.6167   -0.2465    0.0000 C   0  0  0  0  0  0  0  0  0  0  0  0
    2.9022   -1.4840    0.0000 C   0  0  0  0  0  0  0  0  0  0  0  0
  1 24  1  0
  2 15  1  0
  2 20  1  0
  3 10  2  0
  4 11  1  0
  5  6  1  0
  5 10  1  0
  5 12  1  0
  6  9  1  0
  7  9  2  0
  7 13  1  0
  8  9  1  0
  8 10  1  0
  8 11  2  0
 11 14  1  0
 12 16  2  0
 12 17  1  0
 13 14  2  0
 13 15  1  0
 16 18  1  0
 17 19  2  0
 18 21  2  0
 19 21  1  0
 20 22  2  0
 20 23  1  0
 22 25  1  0
 23 26  2  0
 24 25  2  0
 24 26  1  0
M  END
> <chembl_id>
CHEMBL3144871

> <chembl_pref_name>
None

$$$$
CHEMBL456198
     RDKit          2D

 27 29  0  0  0  0  0  0  0  0999 V2000
   -4.9174   -6.3164    0.0000 C   0  0  0  0  0  0  0  0  0  0  0  0
   -5.6318   -5.9039    0.0000 C   0  0  0  0  0  0  0  0  0  0  0  0
   -5.6318   -5.0789    0.0000 C   0  0  0  0  0  0  0  0  0  0  0  0
   -4.9174   -4.6664    0.0000 C   0  0  0  0  0  0  0  0  0  0  0  0
   -4.2029   -5.0789    0.0000 C   0  0  0  0  0  0  0  0  0  0  0  0
   -4.2029   -5.9039    0.0000 C   0  0  0  0  0  0  0  0  0  0  0  0
   -3.4884   -4.6664    0.0000 N   0  0  0  0  0  0  0  0  0  0  0  0
   -2.7740   -5.0789    0.0000 C   0  0  0  0  0  0  0  0  0  0  0  0
   -2.7740   -5.9039    0.0000 O   0  0  0  0  0  0  0  0  0  0  0  0
   -2.0595   -4.6664    0.0000 C   0  0  0  0  0  0  0  0  0  0  0  0
   -1.3450   -5.0789    0.0000 C   0  0  0  0  0  0  0  0  0  0  0  0
   -0.6305   -4.6664    0.0000 N   0  0  0  0  0  0  0  0  0  0  0  0
    0.1231   -5.0020    0.0000 C   0  0  0  0  0  0  0  0  0  0  0  0
    0.6752   -4.3889    0.0000 C   0  0  0  0  0  0  0  0  0  0  0  0
    0.2627   -3.6744    0.0000 S   0  0  0  0  0  0  0  0  0  0  0  0
   -0.5443   -3.8459    0.0000 C   0  0  0  0  0  0  0  0  0  0  0  0
   -1.1574   -3.2939    0.0000 S   0  0  0  0  0  0  0  0  0  0  0  0
    0.2947   -5.8090    0.0000 O   0  0  0  0  0  0  0  0  0  0  0  0
    1.4956   -4.4751    0.0000 C   0  0  0  0  0  0  0  0  0  0  0  0
    1.9806   -3.8077    0.0000 C   0  0  0  0  0  0  0  0  0  0  0  0
    1.6450   -3.0540    0.0000 C   0  0  0  0  0  0  0  0  0  0  0  0
    2.1299   -2.3866    0.0000 C   0  0  0  0  0  0  0  0  0  0  0  0
    2.9504   -2.4728    0.0000 C   0  0  0  0  0  0  0  0  0  0  0  0
    3.2860   -3.2265    0.0000 C   0  0  0  0  0  0  0  0  0  0  0  0
    2.8010   -3.8939    0.0000 C   0  0  0  0  0  0  0  0  0  0  0  0
    1.7944   -1.6329    0.0000 Br  0  0  0  0  0  0  0  0  0  0  0  0
   -3.4884   -6.3164    0.0000 O   0  0  0  0  0  0  0  0  0  0  0  0
  1  2  2  0
  5  7  1  0
  3  4  2  0
 13 14  1  0
 14 15  1  0
 15 16  1  0
 16 12  1  0
  7  8  1  0
 16 17  2  0
 13 18  2  0
  8  9  2  0
 14 19  2  0
  4  5  1  0
 19 20  1  0
  8 10  1  0
 20 21  2  0
  2  3  1  0
 21 22  1  0
 10 11  1  0
 22 23  2  0
  5  6  2  0
 23 24  1  0
 11 12  1  0
 24 25  2  0
 25 20  1  0
 12 13  1  0
 22 26  1  0
  6  1  1  0
  6 27  1  0
M  END
> <chembl_id>
CHEMBL456198

> <chembl_pref_name>
None

$$$$
CHEMBL1587849
     RDKit          2D

 22 25  0  0  0  0  0  0  0  0999 V2000
   -1.0790   -0.3596    0.0000 S   0  0  0  0  0  0  0  0  0  0  0  0
   -1.0540    1.8771    0.0000 O   0  0  0  0  0  0  0  0  0  0  0  0
    1.3109    1.0925    0.0000 O   0  0  0  0  0  0  0  0  0  0  0  0
    1.0174   -1.6695    0.0000 O   0  0  0  0  0  0  0  0  0  0  0  0
    0.2559   -0.3596    0.0000 N   0  0  0  0  0  0  0  0  0  0  0  0
   -0.4115   -1.6695    0.0000 N   0  0  0  0  0  0  0  0  0  0  0  0
   -0.8240    0.4250    0.0000 C   0  0  0  0  0  0  0  0  0  0  0  0
    0.0010    0.4250    0.0000 C   0  0  0  0  0  0  0  0  0  0  0  0
   -0.4115   -0.8445    0.0000 C   0  0  0  0  0  0  0  0  0  0  0  0
   -1.3090    1.0925    0.0000 C   0  0  0  0  0  0  0  0  0  0  0  0
    0.4859    1.0925    0.0000 C   0  0  0  0  0  0  0  0  0  0  0  0
   -2.1340    1.0925    0.0000 C   0  0  0  0  0  0  0  0  0  0  0  0
    0.2310    1.8771    0.0000 C   0  0  0  0  0  0  0  0  0  0  0  0
    0.3029   -2.0820    0.0000 C   0  0  0  0  0  0  0  0  0  0  0  0
    0.3029   -2.9070    0.0000 C   0  0  0  0  0  0  0  0  0  0  0  0
   -1.7215    2.3620    0.0000 C   0  0  0  0  0  0  0  0  0  0  0  0
   -2.3889    1.8771    0.0000 C   0  0  0  0  0  0  0  0  0  0  0  0
    1.5658    1.8771    0.0000 C   0  0  0  0  0  0  0  0  0  0  0  0
    0.8984    2.3620    0.0000 C   0  0  0  0  0  0  0  0  0  0  0  0
    0.8863   -3.4904    0.0000 C   0  0  0  0  0  0  0  0  0  0  0  0
   -0.2804   -3.4904    0.0000 C   0  0  0  0  0  0  0  0  0  0  0  0
    0.3029   -4.0737    0.0000 C   0  0  0  0  0  0  0  0  0  0  0  0
  1  7  1  0
  1  9  1  0
  2 10  1  0
  2 16  1  0
  3 11  1  0
  3 18  1  0
  4 14  2  0
  5  8  1  0
  5  9  2  0
  6  9  1  0
  6 14  1  0
  7  8  2  0
  7 10  1  0
  8 11  1  0
 10 12  2  0
 11 13  2  0
 12 17  1  0
 13 19  1  0
 14 15  1  0
 15 20  1  0
 15 21  1  0
 16 17  2  0
 18 19  2  0
 20 22  1  0
 21 22  1  0
M  END
> <chembl_id>
CHEMBL1587849

> <chembl_pref_name>
None

$$$$
CHEMBL1306839
     RDKit          2D

 27 29  0  0  0  0  0  0  0  0999 V2000
   -4.5243   -1.2615    0.0000 S   0  0  0  0  0  0  0  0  0  0  0  0
   -6.6438   -1.5165    0.0000 O   0  0  0  0  0  0  0  0  0  0  0  0
   -4.2943    0.1905    0.0000 O   0  0  0  0  0  0  0  0  0  0  0  0
   -2.3339   -2.5714    0.0000 O   0  0  0  0  0  0  0  0  0  0  0  0
    0.5240   -2.5714    0.0000 O   0  0  0  0  0  0  0  0  0  0  0  0
    1.9530   -1.7464    0.0000 O   0  0  0  0  0  0  0  0  0  0  0  0
   -5.6042   -0.4769    0.0000 N   0  0  0  0  0  0  0  0  0  0  0  0
   -5.1917   -1.7464    0.0000 C   0  0  0  0  0  0  0  0  0  0  0  0
   -5.8592   -1.2615    0.0000 C   0  0  0  0  0  0  0  0  0  0  0  0
   -4.7792   -0.4769    0.0000 C   0  0  0  0  0  0  0  0  0  0  0  0
   -5.1917   -2.5714    0.0000 C   0  0  0  0  0  0  0  0  0  0  0  0
   -4.4773   -2.9839    0.0000 C   0  0  0  0  0  0  0  0  0  0  0  0
   -3.7628   -2.5714    0.0000 C   0  0  0  0  0  0  0  0  0  0  0  0
   -3.0483   -2.9839    0.0000 C   0  0  0  0  0  0  0  0  0  0  0  0
   -4.4773   -3.8089    0.0000 C   0  0  0  0  0  0  0  0  0  0  0  0
    1.2385   -2.9839    0.0000 C   0  0  0  0  0  0  0  0  0  0  0  0
    1.9530   -2.5714    0.0000 C   0  0  0  0  0  0  0  0  0  0  0  0
   -3.0483   -3.8089    0.0000 C   0  0  0  0  0  0  0  0  0  0  0  0
   -3.7628   -4.2214    0.0000 C   0  0  0  0  0  0  0  0  0  0  0  0
    1.2385   -3.8089    0.0000 C   0  0  0  0  0  0  0  0  0  0  0  0
    2.6674   -2.9839    0.0000 C   0  0  0  0  0  0  0  0  0  0  0  0
    1.9530   -4.2214    0.0000 C   0  0  0  0  0  0  0  0  0  0  0  0
    2.6674   -3.8089    0.0000 C   0  0  0  0  0  0  0  0  0  0  0  0
   -1.6194   -2.9839    0.0000 C   0  0  0  0  0  0  0  0  0  0  0  0
   -0.1904   -2.9839    0.0000 C   0  0  0  0  0  0  0  0  0  0  0  0
   -0.9049   -2.5714    0.0000 C   0  0  0  0  0  0  0  0  0  0  0  0
    2.6674   -1.3339    0.0000 C   0  0  0  0  0  0  0  0  0  0  0  0
  1  8  1  0
  1 10  1  0
  2  9  2  0
  3 10  2  0
  4 14  1  0
  4 24  1  0
  5 16  1  0
  5 25  1  0
  6 17  1  0
  6 27  1  0
  7  9  1  0
  7 10  1  0
  8  9  1  0
  8 11  2  0
 11 12  1  0
 12 13  2  0
 12 15  1  0
 13 14  1  0
 14 18  2  0
 15 19  2  0
 16 17  1  0
 16 20  2  0
 17 21  2  0
 18 19  1  0
 20 22  1  0
 21 23  1  0
 22 23  2  0
 24 26  1  0
 25 26  1  0
M  END
> <chembl_id>
CHEMBL1306839

> <chembl_pref_name>
None

$$$$
CHEMBL1333666
     RDKit          2D

 20 21  0  0  0  0  0  0  0  0999 V2000
   -3.0262    0.2424    0.0000 Cl  0  0  0  0  0  0  0  0  0  0  0  0
   -0.1683   -1.4076    0.0000 O   0  0  0  0  0  0  0  0  0  0  0  0
    1.2606   -1.4076    0.0000 O   0  0  0  0  0  0  0  0  0  0  0  0
    3.4040   -1.8201    0.0000 N   0  0  0  0  0  0  0  0  0  0  0  0
   -0.1683   -2.2326    0.0000 C   0  0  0  0  0  0  0  0  0  0  0  0
    0.5461   -2.6451    0.0000 C   0  0  0  0  0  0  0  0  0  0  0  0
   -0.8828   -0.9951    0.0000 C   0  0  0  0  0  0  0  0  0  0  0  0
   -1.5973   -1.4076    0.0000 C   0  0  0  0  0  0  0  0  0  0  0  0
    1.2606   -2.2326    0.0000 C   0  0  0  0  0  0  0  0  0  0  0  0
   -0.8828   -2.6451    0.0000 C   0  0  0  0  0  0  0  0  0  0  0  0
   -0.8828   -0.1701    0.0000 C   0  0  0  0  0  0  0  0  0  0  0  0
    0.5461   -3.4701    0.0000 C   0  0  0  0  0  0  0  0  0  0  0  0
   -2.3117   -0.9951    0.0000 C   0  0  0  0  0  0  0  0  0  0  0  0
   -2.3117   -0.1701    0.0000 C   0  0  0  0  0  0  0  0  0  0  0  0
   -1.5973    0.2424    0.0000 C   0  0  0  0  0  0  0  0  0  0  0  0
   -0.8828   -3.4701    0.0000 C   0  0  0  0  0  0  0  0  0  0  0  0
   -0.1683   -3.8826    0.0000 C   0  0  0  0  0  0  0  0  0  0  0  0
    1.9751   -2.6451    0.0000 C   0  0  0  0  0  0  0  0  0  0  0  0
   -1.5973   -2.2326    0.0000 C   0  0  0  0  0  0  0  0  0  0  0  0
    2.6896   -2.2326    0.0000 C   0  0  0  0  0  0  0  0  0  0  0  0
  1 14  1  0
  2  5  1  0
  2  7  1  0
  3  9  2  0
  4 20  3  0
  5  6  1  0
  5 10  2  0
  6  9  1  0
  6 12  2  0
  7  8  1  0
  7 11  2  0
  8 13  2  0
  8 19  1  0
  9 18  1  0
 10 16  1  0
 11 15  1  0
 12 17  1  0
 13 14  1  0
 14 15  2  0
 16 17  2  0
 18 20  1  0
M  END
> <chembl_id>
CHEMBL1333666

> <chembl_pref_name>
None

$$$$
CHEMBL1532953
     RDKit          2D

 37 41  0  0  0  0  0  0  0  0999 V2000
   -1.4210    1.8222    0.0000 S   0  0  0  0  0  0  0  0  0  0  0  0
    0.0465   -0.3444    0.0000 S   0  0  0  0  0  0  0  0  0  0  0  0
   -1.1661    2.6068    0.0000 O   0  0  0  0  0  0  0  0  0  0  0  0
   -0.6364    1.5672    0.0000 O   0  0  0  0  0  0  0  0  0  0  0  0
   -0.6680   -0.7569    0.0000 O   0  0  0  0  0  0  0  0  0  0  0  0
    0.7609    0.0681    0.0000 O   0  0  0  0  0  0  0  0  0  0  0  0
   -1.6760   -0.2973    0.0000 N   0  0  0  0  0  0  0  0  0  0  0  0
   -3.1750    1.1951    0.0000 N   0  0  0  0  0  0  0  0  0  0  0  0
   -0.3660    0.3701    0.0000 N   0  0  0  0  0  0  0  0  0  0  0  0
   -3.1750   -0.4549    0.0000 N   0  0  0  0  0  0  0  0  0  0  0  0
   -1.6760    1.0375    0.0000 C   0  0  0  0  0  0  0  0  0  0  0  0
   -2.4606    0.7826    0.0000 C   0  0  0  0  0  0  0  0  0  0  0  0
   -1.1910    0.3701    0.0000 C   0  0  0  0  0  0  0  0  0  0  0  0
   -2.4606   -0.0424    0.0000 C   0  0  0  0  0  0  0  0  0  0  0  0
   -2.2056    2.0771    0.0000 C   0  0  0  0  0  0  0  0  0  0  0  0
   -3.8895    0.7826    0.0000 C   0  0  0  0  0  0  0  0  0  0  0  0
   -3.8895   -0.0424    0.0000 C   0  0  0  0  0  0  0  0  0  0  0  0
   -1.4210   -1.0820    0.0000 C   0  0  0  0  0  0  0  0  0  0  0  0
    0.4590   -1.0589    0.0000 C   0  0  0  0  0  0  0  0  0  0  0  0
   -2.8187    1.5251    0.0000 C   0  0  0  0  0  0  0  0  0  0  0  0
   -2.3772    2.8841    0.0000 C   0  0  0  0  0  0  0  0  0  0  0  0
   -4.6040    1.1951    0.0000 C   0  0  0  0  0  0  0  0  0  0  0  0
   -4.6040   -0.4549    0.0000 C   0  0  0  0  0  0  0  0  0  0  0  0
   -1.9730   -1.6951    0.0000 C   0  0  0  0  0  0  0  0  0  0  0  0
   -5.3185    0.7826    0.0000 C   0  0  0  0  0  0  0  0  0  0  0  0
   -5.3185   -0.0424    0.0000 C   0  0  0  0  0  0  0  0  0  0  0  0
    1.2840   -1.0589    0.0000 C   0  0  0  0  0  0  0  0  0  0  0  0
    0.0465   -1.7733    0.0000 C   0  0  0  0  0  0  0  0  0  0  0  0
   -3.6034    1.7800    0.0000 C   0  0  0  0  0  0  0  0  0  0  0  0
   -3.1618    3.1390    0.0000 C   0  0  0  0  0  0  0  0  0  0  0  0
   -3.7749    2.5870    0.0000 C   0  0  0  0  0  0  0  0  0  0  0  0
    1.6965   -1.7733    0.0000 C   0  0  0  0  0  0  0  0  0  0  0  0
    0.4590   -2.4878    0.0000 C   0  0  0  0  0  0  0  0  0  0  0  0
   -1.7181   -2.4797    0.0000 C   0  0  0  0  0  0  0  0  0  0  0  0
    1.2840   -2.4878    0.0000 C   0  0  0  0  0  0  0  0  0  0  0  0
   -2.2701   -3.0928    0.0000 C   0  0  0  0  0  0  0  0  0  0  0  0
    1.6965   -3.2023    0.0000 C   0  0  0  0  0  0  0  0  0  0  0  0
  1  3  2  0
  1  4  2  0
  1 11  1  0
  1 15  1  0
  2  5  2  0
  2  6  2  0
  2  9  1  0
  2 19  1  0
  7 13  1  0
  7 14  1  0
  7 18  1  0
  8 12  2  0
  8 16  1  0
  9 13  1  0
 10 14  2  0
 10 17  1  0
 11 12  1  0
 11 13  2  0
 12 14  1  0
 15 20  2  0
 15 21  1  0
 16 17  1  0
 16 22  2  0
 17 23  2  0
 18 24  1  0
 19 27  2  0
 19 28  1  0
 20 29  1  0
 21 30  2  0
 22 25  1  0
 23 26  1  0
 24 34  1  0
 25 26  2  0
 27 32  1  0
 28 33  2  0
 29 31  2  0
 30 31  1  0
 32 35  2  0
 33 35  1  0
 34 36  1  0
 35 37  1  0
M  END
> <chembl_id>
CHEMBL1532953

> <chembl_pref_name>
None

$$$$
CHEMBL1493191
     RDKit          2D

 22 24  0  0  0  0  0  0  0  0999 V2000
   -2.2942    1.0392    0.0000 S   0  0  0  0  0  0  0  0  0  0  0  0
   -3.6667    1.5661    0.0000 S   0  0  0  0  0  0  0  0  0  0  0  0
   -1.0137    2.7473    0.0000 O   0  0  0  0  0  0  0  0  0  0  0  0
   -3.7759    5.3815    0.0000 O   0  0  0  0  0  0  0  0  0  0  0  0
   -2.2079   -1.5851    0.0000 O   0  0  0  0  0  0  0  0  0  0  0  0
   -2.4337    2.3668    0.0000 N   0  0  0  0  0  0  0  0  0  0  0  0
   -1.6267    2.1953    0.0000 C   0  0  0  0  0  0  0  0  0  0  0  0
   -2.8462    1.6523    0.0000 C   0  0  0  0  0  0  0  0  0  0  0  0
   -1.5405    1.3748    0.0000 C   0  0  0  0  0  0  0  0  0  0  0  0
   -2.7693    3.1205    0.0000 C   0  0  0  0  0  0  0  0  0  0  0  0
   -0.8260    0.9623    0.0000 C   0  0  0  0  0  0  0  0  0  0  0  0
   -3.5898    3.2067    0.0000 C   0  0  0  0  0  0  0  0  0  0  0  0
   -2.2844    3.7879    0.0000 C   0  0  0  0  0  0  0  0  0  0  0  0
   -3.9253    3.9604    0.0000 C   0  0  0  0  0  0  0  0  0  0  0  0
   -2.6199    4.5416    0.0000 C   0  0  0  0  0  0  0  0  0  0  0  0
   -3.4404    4.6278    0.0000 C   0  0  0  0  0  0  0  0  0  0  0  0
   -0.8260    0.1373    0.0000 C   0  0  0  0  0  0  0  0  0  0  0  0
   -1.5405   -0.2752    0.0000 C   0  0  0  0  0  0  0  0  0  0  0  0
   -1.5405   -1.1002    0.0000 C   0  0  0  0  0  0  0  0  0  0  0  0
   -0.8731   -1.5851    0.0000 C   0  0  0  0  0  0  0  0  0  0  0  0
   -1.9530   -2.3698    0.0000 C   0  0  0  0  0  0  0  0  0  0  0  0
   -1.1280   -2.3698    0.0000 C   0  0  0  0  0  0  0  0  0  0  0  0
  1  8  1  0
  1  9  1  0
  2  8  2  0
  3  7  2  0
  4 16  1  0
  5 19  1  0
  5 21  1  0
  6  7  1  0
  6  8  1  0
  6 10  1  0
  7  9  1  0
  9 11  2  0
 10 12  2  0
 10 13  1  0
 11 17  1  0
 12 14  1  0
 13 15  2  0
 14 16  2  0
 15 16  1  0
 17 18  2  0
 18 19  1  0
 19 20  2  0
 20 22  1  0
 21 22  2  0
M  END
> <chembl_id>
CHEMBL1493191

> <chembl_pref_name>
None

$$$$
CHEMBL506678
     RDKit          2D

 45 49  0  0  0  0  0  0  0  0999 V2000
    2.3645   -5.3036    0.0000 C   0  0  0  0  0  0  0  0  0  0  0  0
    1.6500   -4.8911    0.0000 C   0  0  0  0  0  0  0  0  0  0  0  0
    0.9355   -5.3036    0.0000 C   0  0  0  0  0  0  0  0  0  0  0  0
    0.9355   -6.1286    0.0000 C   0  0  0  0  0  0  0  0  0  0  0  0
    1.6500   -6.5411    0.0000 C   0  0  0  0  0  0  0  0  0  0  0  0
    2.3645   -6.1286    0.0000 C   0  0  0  0  0  0  0  0  0  0  0  0
    3.0790   -4.8911    0.0000 C   0  0  0  0  0  0  0  0  0  0  0  0
    3.7934   -5.3035    0.0000 C   0  0  0  0  0  0  0  0  0  0  0  0
    3.7934   -6.1285    0.0000 C   0  0  0  0  0  0  0  0  0  0  0  0
    3.0790   -6.5411    0.0000 C   0  0  0  0  0  0  0  0  0  0  0  0
    3.0790   -4.0660    0.0000 C   0  0  0  0  0  0  0  0  0  0  0  0
    3.7934   -3.6535    0.0000 C   0  0  0  0  0  0  0  0  0  0  0  0
    4.5079   -4.0660    0.0000 C   0  0  0  0  0  0  0  0  0  0  0  0
    4.5079   -4.8910    0.0000 C   0  0  0  0  0  0  0  0  0  0  0  0
    5.2925   -5.1459    0.0000 C   0  0  0  0  0  0  0  0  0  0  0  0
    5.7774   -4.4785    0.0000 C   0  0  0  0  0  0  0  0  0  0  0  0
    5.2925   -3.8111    0.0000 C   0  0  0  0  0  0  0  0  0  0  0  0
    5.5475   -3.0265    0.0000 C   0  0  0  0  0  0  0  0  0  0  0  0
    4.9954   -2.4134    0.0000 C   0  0  0  0  0  0  0  0  0  0  0  0
    6.3544   -2.8549    0.0000 C   0  0  0  0  0  0  0  0  0  0  0  0
    6.6094   -2.0703    0.0000 C   0  0  0  0  0  0  0  0  0  0  0  0
    7.4163   -1.8988    0.0000 C   0  0  0  0  0  0  0  0  0  0  0  0
    7.6713   -1.1142    0.0000 C   0  0  0  0  0  0  0  0  0  0  0  0
    7.9684   -2.5119    0.0000 C   0  0  0  0  0  0  0  0  0  0  0  0
    8.7753   -2.3404    0.0000 C   0  0  0  0  0  0  0  0  0  0  0  0
    8.4783   -0.9427    0.0000 C   0  0  0  0  0  0  0  0  0  0  0  0
    7.1193   -0.5011    0.0000 C   0  0  0  0  0  0  0  0  0  0  0  0
    4.8800   -3.0966    0.0000 H   0  0  0  0  0  0  0  0  0  0  0  0
    4.5079   -3.2410    0.0000 C   0  0  0  0  0  0  0  0  0  0  0  0
    3.7934   -4.4785    0.0000 H   0  0  0  0  0  0  0  0  0  0  0  0
    2.3645   -4.4786    0.0000 C   0  0  0  0  0  0  0  0  0  0  0  0
    0.2210   -6.5411    0.0000 O   0  0  0  0  0  0  0  0  0  0  0  0
   -0.6040   -6.5411    0.0000 C   0  0  0  0  0  0  0  0  0  0  0  0
   -1.0165   -5.8266    0.0000 O   0  0  0  0  0  0  0  0  0  0  0  0
   -1.8415   -5.8266    0.0000 C   0  0  0  0  0  0  0  0  0  0  0  0
   -2.2540   -6.5411    0.0000 C   0  0  0  0  0  0  0  0  0  0  0  0
   -1.8415   -7.2555    0.0000 C   0  0  0  0  0  0  0  0  0  0  0  0
   -1.0165   -7.2555    0.0000 C   0  0  0  0  0  0  0  0  0  0  0  0
   -2.2540   -5.1121    0.0000 C   0  0  0  0  0  0  0  0  0  0  0  0
   -3.0790   -5.1121    0.0000 O   0  0  0  0  0  0  0  0  0  0  0  0
   -3.0790   -6.5411    0.0000 O   0  0  0  0  0  0  0  0  0  0  0  0
   -2.2540   -7.9700    0.0000 O   0  0  0  0  0  0  0  0  0  0  0  0
   -0.6040   -7.9700    0.0000 O   0  0  0  0  0  0  0  0  0  0  0  0
    4.5942   -5.7115    0.0000 H   0  0  0  0  0  0  0  0  0  0  0  0
    3.0790   -5.7161    0.0000 H   0  0  0  0  0  0  0  0  0  0  0  0
  1  2  1  0
  2  3  1  0
  3  4  1  0
  4  5  1  0
  5  6  1  0
 10  6  2  0
  6  1  1  0
  1  7  1  0
  8  9  1  0
  9 10  1  0
 14  8  1  0
  8  7  1  0
  7 11  1  0
 11 12  1  0
 12 13  1  0
 13 17  1  0
 13 14  1  0
 14 15  1  0
 15 16  1  0
 16 17  1  0
 17 18  1  0
 18 19  1  6
 18 20  1  0
 20 21  1  0
 21 22  1  0
 22 23  1  0
 22 24  1  6
 24 25  1  0
 23 26  1  0
 23 27  1  0
 17 28  1  6
 13 29  1  1
  8 30  1  1
  1 31  1  1
  4 32  1  1
 33 32  1  1
 33 34  1  0
 38 33  1  0
 34 35  1  0
 35 36  1  0
 36 37  1  0
 37 38  1  0
 35 39  1  1
 39 40  1  0
 36 41  1  6
 37 42  1  1
 38 43  1  6
 14 44  1  6
  7 45  1  6
M  END
> <chembl_id>
CHEMBL506678

> <chembl_pref_name>
SITOGLUSIDE

$$$$
CHEMBL464410
     RDKit          2D

 29 31  0  0  0  0  0  0  0  0999 V2000
    4.4717    0.1390    0.0000 C   0  0  0  0  0  0  0  0  0  0  0  0
    4.4717   -0.6860    0.0000 C   0  0  0  0  0  0  0  0  0  0  0  0
    3.7572   -1.0985    0.0000 C   0  0  0  0  0  0  0  0  0  0  0  0
    3.0427   -0.6860    0.0000 C   0  0  0  0  0  0  0  0  0  0  0  0
    3.7572    0.5515    0.0000 C   0  0  0  0  0  0  0  0  0  0  0  0
    3.0427    0.1390    0.0000 C   0  0  0  0  0  0  0  0  0  0  0  0
    3.7572    1.3765    0.0000 N   0  0  0  0  0  0  0  0  0  0  0  0
    4.4717    1.7890    0.0000 C   0  0  0  0  0  0  0  0  0  0  0  0
    4.4717    2.6140    0.0000 C   0  0  0  0  0  0  0  0  0  0  0  0
    3.7572    3.0265    0.0000 N   0  0  0  0  0  0  0  0  0  0  0  0
    3.0427    2.6140    0.0000 C   0  0  0  0  0  0  0  0  0  0  0  0
    3.0427    1.7890    0.0000 C   0  0  0  0  0  0  0  0  0  0  0  0
    3.7572    3.8515    0.0000 C   0  0  0  0  0  0  0  0  0  0  0  0
    4.4717    4.2640    0.0000 O   0  0  0  0  0  0  0  0  0  0  0  0
    3.0427    4.2640    0.0000 O   0  0  0  0  0  0  0  0  0  0  0  0
    3.0427    5.0890    0.0000 C   0  0  0  0  0  0  0  0  0  0  0  0
    3.0427    5.9140    0.0000 C   0  0  0  0  0  0  0  0  0  0  0  0
    2.2177    5.0890    0.0000 C   0  0  0  0  0  0  0  0  0  0  0  0
    3.8677    5.0890    0.0000 C   0  0  0  0  0  0  0  0  0  0  0  0
    3.7572   -1.9235    0.0000 C   0  0  0  0  0  0  0  0  0  0  0  0
    3.0427   -2.3360    0.0000 O   0  0  0  0  0  0  0  0  0  0  0  0
    4.4717   -2.3360    0.0000 N   0  0  0  0  0  0  0  0  0  0  0  0
    4.4717   -3.1610    0.0000 C   0  0  0  0  0  0  0  0  0  0  0  0
    5.1862   -3.5735    0.0000 C   0  0  0  0  0  0  0  0  0  0  0  0
    5.1862   -4.3985    0.0000 C   0  0  0  0  0  0  0  0  0  0  0  0
    4.4717   -4.8110    0.0000 C   0  0  0  0  0  0  0  0  0  0  0  0
    3.7572   -4.3985    0.0000 C   0  0  0  0  0  0  0  0  0  0  0  0
    3.7572   -3.5735    0.0000 C   0  0  0  0  0  0  0  0  0  0  0  0
    4.4717   -5.6360    0.0000 O   0  0  0  0  0  0  0  0  0  0  0  0
  2  3  2  0
 13 14  2  0
 13 15  1  0
 15 16  1  0
  3  4  1  0
 16 17  1  0
  4  6  2  0
 16 18  1  0
  5  6  1  0
 16 19  1  0
  1  2  1  0
  3 20  1  0
  7 12  1  0
 20 21  2  0
  8  9  1  0
 20 22  1  0
  9 10  1  0
 22 23  1  0
 10 11  1  0
 23 24  2  0
 11 12  1  0
 24 25  1  0
  5  7  1  0
 25 26  2  0
  5  1  2  0
 26 27  1  0
 10 13  1  0
 27 28  2  0
 28 23  1  0
  7  8  1  0
 26 29  1  0
M  END
> <chembl_id>
CHEMBL464410

> <chembl_pref_name>
None

$$$$
CHEMBL1444743
     RDKit          2D

 28 31  0  0  0  0  0  0  0  0999 V2000
   -2.7759   -2.8341    0.0000 Cl  0  0  0  0  0  0  0  0  0  0  0  0
    2.0594   -4.0575    0.0000 O   0  0  0  0  0  0  0  0  0  0  0  0
    0.8584   -5.3913    0.0000 O   0  0  0  0  0  0  0  0  0  0  0  0
    0.9320   -1.0511    0.0000 O   0  0  0  0  0  0  0  0  0  0  0  0
    1.9825   -2.4169    0.0000 O   0  0  0  0  0  0  0  0  0  0  0  0
   -1.4487   -5.9712    0.0000 O   0  0  0  0  0  0  0  0  0  0  0  0
   -0.0668   -4.2488    0.0000 N   0  0  0  0  0  0  0  0  0  0  0  0
    0.0195   -3.4283    0.0000 C   0  0  0  0  0  0  0  0  0  0  0  0
    0.8265   -3.2568    0.0000 C   0  0  0  0  0  0  0  0  0  0  0  0
    1.2390   -3.9713    0.0000 C   0  0  0  0  0  0  0  0  0  0  0  0
    0.6869   -4.5844    0.0000 C   0  0  0  0  0  0  0  0  0  0  0  0
    1.1620   -2.5031    0.0000 C   0  0  0  0  0  0  0  0  0  0  0  0
   -0.5936   -2.8763    0.0000 C   0  0  0  0  0  0  0  0  0  0  0  0
    0.6771   -1.8357    0.0000 C   0  0  0  0  0  0  0  0  0  0  0  0
   -0.7812   -4.6613    0.0000 C   0  0  0  0  0  0  0  0  0  0  0  0
   -1.3782   -3.1312    0.0000 C   0  0  0  0  0  0  0  0  0  0  0  0
   -0.4221   -2.0693    0.0000 C   0  0  0  0  0  0  0  0  0  0  0  0
   -0.7812   -5.4863    0.0000 C   0  0  0  0  0  0  0  0  0  0  0  0
   -0.1479   -1.8357    0.0000 C   0  0  0  0  0  0  0  0  0  0  0  0
   -1.9913   -2.5792    0.0000 C   0  0  0  0  0  0  0  0  0  0  0  0
    0.2646   -0.5661    0.0000 C   0  0  0  0  0  0  0  0  0  0  0  0
   -1.0352   -1.5173    0.0000 C   0  0  0  0  0  0  0  0  0  0  0  0
   -0.4028   -1.0511    0.0000 C   0  0  0  0  0  0  0  0  0  0  0  0
   -1.8198   -1.7722    0.0000 C   0  0  0  0  0  0  0  0  0  0  0  0
   -0.1138   -5.9712    0.0000 C   0  0  0  0  0  0  0  0  0  0  0  0
   -1.1937   -6.7559    0.0000 C   0  0  0  0  0  0  0  0  0  0  0  0
   -0.3687   -6.7559    0.0000 C   0  0  0  0  0  0  0  0  0  0  0  0
    0.2646    0.2589    0.0000 C   0  0  0  0  0  0  0  0  0  0  0  0
  1 20  1  0
  2 10  1  0
  3 11  2  0
  4 14  1  0
  4 21  1  0
  5 12  2  0
  6 18  1  0
  6 26  1  0
  7  8  1  0
  7 11  1  0
  7 15  1  0
  8  9  1  0
  8 13  1  0
  9 10  2  0
  9 12  1  0
 10 11  1  0
 12 14  1  0
 13 16  1  0
 13 17  2  0
 14 19  2  0
 15 18  1  0
 16 20  2  0
 17 22  1  0
 18 25  2  0
 19 23  1  0
 20 24  1  0
 21 23  2  0
 21 28  1  0
 22 24  2  0
 25 27  1  0
 26 27  2  0
M  END
> <chembl_id>
CHEMBL1444743

> <chembl_pref_name>
None

$$$$
CHEMBL487805
     RDKit          2D

 33 36  0  0  0  0  0  0  0  0999 V2000
    2.3363   -5.0955    0.0000 O   0  0  0  0  0  0  0  0  0  0  0  0
    2.3474   -4.2706    0.0000 C   0  0  0  0  0  0  0  0  0  0  0  0
    1.6385   -3.8485    0.0000 C   0  0  0  0  0  0  0  0  0  0  0  0
    0.9185   -4.2514    0.0000 O   0  0  0  0  0  0  0  0  0  0  0  0
    1.6495   -3.0235    0.0000 C   0  0  0  0  0  0  0  0  0  0  0  0
    0.9407   -2.6015    0.0000 O   0  0  0  0  0  0  0  0  0  0  0  0
    2.3695   -2.6207    0.0000 C   0  0  0  0  0  0  0  0  0  0  0  0
    2.3806   -1.7958    0.0000 O   0  0  0  0  0  0  0  0  0  0  0  0
    3.0784   -3.0427    0.0000 C   0  0  0  0  0  0  0  0  0  0  0  0
    3.0673   -3.8677    0.0000 O   0  0  0  0  0  0  0  0  0  0  0  0
    3.7983   -2.6398    0.0000 C   0  0  0  0  0  0  0  0  0  0  0  0
    3.8094   -1.8149    0.0000 O   0  0  0  0  0  0  0  0  0  0  0  0
    4.5072   -3.0619    0.0000 O   0  0  0  0  0  0  0  0  0  0  0  0
    5.9077   -5.5121    0.0000 C   0  0  0  0  0  0  0  0  0  0  0  0
    5.9077   -6.3370    0.0000 C   0  0  0  0  0  0  0  0  0  0  0  0
    5.1931   -6.7496    0.0000 C   0  0  0  0  0  0  0  0  0  0  0  0
    5.1931   -7.5746    0.0000 O   0  0  0  0  0  0  0  0  0  0  0  0
    4.4786   -6.3370    0.0000 C   0  0  0  0  0  0  0  0  0  0  0  0
    3.7642   -6.7496    0.0000 C   0  0  0  0  0  0  0  0  0  0  0  0
    3.0497   -6.3370    0.0000 C   0  0  0  0  0  0  0  0  0  0  0  0
    3.0497   -5.5121    0.0000 C   0  0  0  0  0  0  0  0  0  0  0  0
    3.7642   -5.0995    0.0000 C   0  0  0  0  0  0  0  0  0  0  0  0
    4.4786   -5.5121    0.0000 C   0  0  0  0  0  0  0  0  0  0  0  0
    5.1931   -5.0995    0.0000 O   0  0  0  0  0  0  0  0  0  0  0  0
    6.6221   -5.0995    0.0000 C   0  0  0  0  0  0  0  0  0  0  0  0
    6.6221   -4.2745    0.0000 C   0  0  0  0  0  0  0  0  0  0  0  0
    7.3366   -3.8620    0.0000 C   0  0  0  0  0  0  0  0  0  0  0  0
    8.0510   -4.2745    0.0000 C   0  0  0  0  0  0  0  0  0  0  0  0
    8.0510   -5.0995    0.0000 C   0  0  0  0  0  0  0  0  0  0  0  0
    7.3366   -5.5121    0.0000 C   0  0  0  0  0  0  0  0  0  0  0  0
    8.7656   -3.8620    0.0000 O   0  0  0  0  0  0  0  0  0  0  0  0
    2.3352   -6.7496    0.0000 O   0  0  0  0  0  0  0  0  0  0  0  0
    3.7642   -7.5746    0.0000 O   0  0  0  0  0  0  0  0  0  0  0  0
  2  1  1  1
  2  3  1  0
  3  4  1  6
  3  5  1  0
  5  6  1  1
  5  7  1  0
  7  8  1  6
  7  9  1  0
  9 10  1  0
  9 11  1  1
  2 10  1  0
 11 12  2  0
 11 13  1  0
 14 15  2  0
 15 16  1  0
 16 17  2  0
 16 18  1  0
 18 19  1  0
 19 20  2  0
 20 21  1  0
 21 22  2  0
 22 23  1  0
 18 23  2  0
 23 24  1  0
 14 24  1  0
 14 25  1  0
 25 26  1  0
 26 27  2  0
 27 28  1  0
 28 29  2  0
 29 30  1  0
 25 30  2  0
 28 31  1  0
 21  1  1  0
 20 32  1  0
 19 33  1  0
M  END
> <chembl_id>
CHEMBL487805

> <chembl_pref_name>
SCUTELLARIN

$$$$
CHEMBL1425000
     RDKit          2D

 36 40  0  0  0  0  0  0  0  0999 V2000
   -5.0392    1.2608    0.0000 F   0  0  0  0  0  0  0  0  0  0  0  0
   -0.0379    2.4983    0.0000 O   0  0  0  0  0  0  0  0  0  0  0  0
   -1.4668    0.0233    0.0000 O   0  0  0  0  0  0  0  0  0  0  0  0
    1.3910    0.0233    0.0000 O   0  0  0  0  0  0  0  0  0  0  0  0
   -1.4668   -1.6267    0.0000 O   0  0  0  0  0  0  0  0  0  0  0  0
    3.5737    2.1628    0.0000 O   0  0  0  0  0  0  0  0  0  0  0  0
   -1.4668    2.4983    0.0000 N   0  0  0  0  0  0  0  0  0  0  0  0
   -2.1813    0.4358    0.0000 N   0  0  0  0  0  0  0  0  0  0  0  0
   -0.0379    0.8483    0.0000 C   0  0  0  0  0  0  0  0  0  0  0  0
    0.6766    1.2608    0.0000 C   0  0  0  0  0  0  0  0  0  0  0  0
    0.6766    2.0858    0.0000 C   0  0  0  0  0  0  0  0  0  0  0  0
   -0.0379    0.0233    0.0000 C   0  0  0  0  0  0  0  0  0  0  0  0
   -0.7524    1.2608    0.0000 C   0  0  0  0  0  0  0  0  0  0  0  0
    1.3910    0.8483    0.0000 C   0  0  0  0  0  0  0  0  0  0  0  0
   -0.7524    2.0858    0.0000 C   0  0  0  0  0  0  0  0  0  0  0  0
   -0.7524   -0.3892    0.0000 C   0  0  0  0  0  0  0  0  0  0  0  0
    2.1055    2.0858    0.0000 C   0  0  0  0  0  0  0  0  0  0  0  0
    1.3910    2.4983    0.0000 C   0  0  0  0  0  0  0  0  0  0  0  0
    2.1055    1.2608    0.0000 C   0  0  0  0  0  0  0  0  0  0  0  0
    0.6766   -0.3892    0.0000 C   0  0  0  0  0  0  0  0  0  0  0  0
   -0.7524   -1.2142    0.0000 C   0  0  0  0  0  0  0  0  0  0  0  0
    2.8200    2.4983    0.0000 C   0  0  0  0  0  0  0  0  0  0  0  0
   -1.4668    0.8483    0.0000 C   0  0  0  0  0  0  0  0  0  0  0  0
    0.6766   -1.2142    0.0000 C   0  0  0  0  0  0  0  0  0  0  0  0
   -0.0379   -1.6267    0.0000 C   0  0  0  0  0  0  0  0  0  0  0  0
    2.9062    3.3188    0.0000 C   0  0  0  0  0  0  0  0  0  0  0  0
   -2.1813   -0.3892    0.0000 C   0  0  0  0  0  0  0  0  0  0  0  0
    4.1257    2.7759    0.0000 C   0  0  0  0  0  0  0  0  0  0  0  0
    3.7132    3.4904    0.0000 C   0  0  0  0  0  0  0  0  0  0  0  0
   -2.8958    0.0233    0.0000 C   0  0  0  0  0  0  0  0  0  0  0  0
   -2.1813   -1.2142    0.0000 C   0  0  0  0  0  0  0  0  0  0  0  0
   -3.6103   -0.3892    0.0000 C   0  0  0  0  0  0  0  0  0  0  0  0
   -2.8958    0.8483    0.0000 C   0  0  0  0  0  0  0  0  0  0  0  0
   -4.3247    0.0233    0.0000 C   0  0  0  0  0  0  0  0  0  0  0  0
   -3.6103    1.2608    0.0000 C   0  0  0  0  0  0  0  0  0  0  0  0
   -4.3247    0.8483    0.0000 C   0  0  0  0  0  0  0  0  0  0  0  0
  1 36  1  0
  2 11  1  0
  2 15  1  0
  3 16  1  0
  3 27  1  0
  4 14  2  0
  5 21  1  0
  5 31  1  0
  6 22  1  0
  6 28  1  0
  7 15  1  0
  8 23  3  0
  9 10  1  0
  9 12  1  0
  9 13  1  0
 10 11  2  0
 10 14  1  0
 11 18  1  0
 12 16  2  0
 12 20  1  0
 13 15  2  0
 13 23  1  0
 14 19  1  0
 16 21  1  0
 17 18  1  0
 17 19  1  0
 17 22  1  0
 20 24  2  0
 21 25  2  0
 22 26  2  0
 24 25  1  0
 26 29  1  0
 27 30  1  0
 28 29  2  0
 30 32  2  0
 30 33  1  0
 32 34  1  0
 33 35  2  0
 34 36  2  0
 35 36  1  0
M  END
> <chembl_id>
CHEMBL1425000

> <chembl_pref_name>
None

$$$$
CHEMBL1362526
     RDKit          2D

 20 21  0  0  0  0  0  0  0  0999 V2000
   -0.9154    3.2667    0.0000 S   0  0  0  0  0  0  0  0  0  0  0  0
   -0.9154    4.0917    0.0000 O   0  0  0  0  0  0  0  0  0  0  0  0
   -1.7404    3.2667    0.0000 O   0  0  0  0  0  0  0  0  0  0  0  0
   -3.0118   -2.9932    0.0000 O   0  0  0  0  0  0  0  0  0  0  0  0
   -2.3444   -0.0333    0.0000 O   0  0  0  0  0  0  0  0  0  0  0  0
   -0.9154   -0.0333    0.0000 N   0  0  0  0  0  0  0  0  0  0  0  0
   -0.0904    3.2667    0.0000 N   0  0  0  0  0  0  0  0  0  0  0  0
   -0.9154    2.4417    0.0000 C   0  0  0  0  0  0  0  0  0  0  0  0
   -0.9154    0.7917    0.0000 C   0  0  0  0  0  0  0  0  0  0  0  0
   -0.2010    2.0292    0.0000 C   0  0  0  0  0  0  0  0  0  0  0  0
   -1.6299    2.0292    0.0000 C   0  0  0  0  0  0  0  0  0  0  0  0
   -0.2010    1.2042    0.0000 C   0  0  0  0  0  0  0  0  0  0  0  0
   -1.6299    1.2042    0.0000 C   0  0  0  0  0  0  0  0  0  0  0  0
   -1.6299   -0.4458    0.0000 C   0  0  0  0  0  0  0  0  0  0  0  0
   -2.3444   -2.5083    0.0000 C   0  0  0  0  0  0  0  0  0  0  0  0
   -1.6299   -1.2708    0.0000 C   0  0  0  0  0  0  0  0  0  0  0  0
   -2.3444   -1.6833    0.0000 C   0  0  0  0  0  0  0  0  0  0  0  0
   -1.6769   -2.9932    0.0000 C   0  0  0  0  0  0  0  0  0  0  0  0
   -2.7569   -3.7778    0.0000 C   0  0  0  0  0  0  0  0  0  0  0  0
   -1.9319   -3.7778    0.0000 C   0  0  0  0  0  0  0  0  0  0  0  0
  1  2  2  0
  1  3  2  0
  1  7  1  0
  1  8  1  0
  4 15  1  0
  4 19  1  0
  5 14  2  0
  6  9  1  0
  6 14  1  0
  8 10  2  0
  8 11  1  0
  9 12  2  0
  9 13  1  0
 10 12  1  0
 11 13  2  0
 14 16  1  0
 15 17  1  0
 15 18  2  0
 16 17  2  0
 18 20  1  0
 19 20  2  0
M  END
> <chembl_id>
CHEMBL1362526

> <chembl_pref_name>
None

$$$$
CHEMBL4584525
     RDKit          2D

 32 36  0  0  0  0  0  0  0  0999 V2000
   37.9045   -2.1833    0.0000 C   0  0  0  0  0  0  0  0  0  0  0  0
   37.9045   -3.0005    0.0000 C   0  0  0  0  0  0  0  0  0  0  0  0
   38.6097   -3.4050    0.0000 C   0  0  0  0  0  0  0  0  0  0  0  0
   39.3150   -3.0005    0.0000 N   0  0  0  0  0  0  0  0  0  0  0  0
   39.3150   -2.1833    0.0000 C   0  0  0  0  0  0  0  0  0  0  0  0
   38.6097   -1.7706    0.0000 N   0  0  0  0  0  0  0  0  0  0  0  0
   40.0239   -1.7768    0.0000 S   0  0  0  0  0  0  0  0  0  0  0  0
   37.1956   -1.7768    0.0000 O   0  0  0  0  0  0  0  0  0  0  0  0
   38.6097   -4.2222    0.0000 O   0  0  0  0  0  0  0  0  0  0  0  0
   37.1974   -3.4101    0.0000 C   0  0  0  0  0  0  0  0  0  0  0  0
   37.1985   -4.2273    0.0000 C   0  0  0  0  0  0  0  0  0  0  0  0
   37.6132   -5.4826    0.0000 N   0  0  0  0  0  0  0  0  0  0  0  0
   37.8645   -4.7050    0.0000 C   0  0  0  0  0  0  0  0  0  0  0  0
   36.7960   -5.4838    0.0000 C   0  0  0  0  0  0  0  0  0  0  0  0
   36.5457   -4.7097    0.0000 C   0  0  0  0  0  0  0  0  0  0  0  0
   35.7519   -4.5407    0.0000 C   0  0  0  0  0  0  0  0  0  0  0  0
   35.2074   -5.1449    0.0000 C   0  0  0  0  0  0  0  0  0  0  0  0
   35.4624   -5.9207    0.0000 C   0  0  0  0  0  0  0  0  0  0  0  0
   36.2557   -6.0860    0.0000 C   0  0  0  0  0  0  0  0  0  0  0  0
   38.0305   -6.1852    0.0000 C   0  0  0  0  0  0  0  0  0  0  0  0
   37.6309   -6.8980    0.0000 O   0  0  0  0  0  0  0  0  0  0  0  0
   38.8477   -6.1750    0.0000 C   0  0  0  0  0  0  0  0  0  0  0  0
   39.2626   -6.8783    0.0000 C   0  0  0  0  0  0  0  0  0  0  0  0
   40.0576   -5.4503    0.0000 C   0  0  0  0  0  0  0  0  0  0  0  0
   39.2426   -5.4636    0.0000 C   0  0  0  0  0  0  0  0  0  0  0  0
   40.4795   -6.1551    0.0000 C   0  0  0  0  0  0  0  0  0  0  0  0
   40.0785   -6.8652    0.0000 C   0  0  0  0  0  0  0  0  0  0  0  0
   40.4928   -7.5655    0.0000 C   0  0  0  0  0  0  0  0  0  0  0  0
   41.3081   -7.5569    0.0000 C   0  0  0  0  0  0  0  0  0  0  0  0
   41.7072   -6.8421    0.0000 C   0  0  0  0  0  0  0  0  0  0  0  0
   41.2906   -6.1447    0.0000 C   0  0  0  0  0  0  0  0  0  0  0  0
   34.4078   -4.9762    0.0000 Cl  0  0  0  0  0  0  0  0  0  0  0  0
  1  2  1  0
  1  6  1  0
  2  3  1  0
  3  4  1  0
  4  5  1  0
  5  6  1  0
  5  7  2  0
  1  8  2  0
  3  9  2  0
  2 10  2  0
 10 11  1  0
 11 15  1  0
 14 12  1  0
 12 13  1  0
 13 11  2  0
 14 15  2  0
 15 16  1  0
 16 17  2  0
 17 18  1  0
 18 19  2  0
 19 14  1  0
 12 20  1  0
 20 21  2  0
 20 22  1  0
 22 23  2  0
 23 27  1  0
 26 24  1  0
 24 25  2  0
 25 22  1  0
 26 27  1  0
 27 28  2  0
 28 29  1  0
 29 30  2  0
 30 31  1  0
 31 26  2  0
 17 32  1  0
M  END
> <chembl_id>
CHEMBL4584525

> <chembl_pref_name>
None

$$$$
CHEMBL522621
     RDKit          2D

 35 38  0  0  0  0  0  0  0  0999 V2000
   -2.9250   -0.5583    0.0000 C   0  0  0  0  0  0  0  0  0  0  0  0
   -2.1000   -0.5583    0.0000 C   0  0  0  0  0  0  0  0  0  0  0  0
   -1.2750   -0.5583    0.0000 C   0  0  0  0  0  0  0  0  0  0  0  0
   -2.1000    0.2667    0.0000 C   0  0  0  0  0  0  0  0  0  0  0  0
   -2.1000   -1.3833    0.0000 C   0  0  0  0  0  0  0  0  0  0  0  0
   -0.8644   -1.2751    0.0000 C   0  0  0  0  0  0  0  0  0  0  0  0
   -0.0401   -1.2755    0.0000 C   0  0  0  0  0  0  0  0  0  0  0  0
    0.3732   -0.5605    0.0000 C   0  0  0  0  0  0  0  0  0  0  0  0
   -0.0437    0.1564    0.0000 C   0  0  0  0  0  0  0  0  0  0  0  0
   -0.8666    0.1532    0.0000 C   0  0  0  0  0  0  0  0  0  0  0  0
   -1.3832    0.6773    0.0000 C   0  0  0  0  0  0  0  0  0  0  0  0
   -1.3829    1.5015    0.0000 C   0  0  0  0  0  0  0  0  0  0  0  0
   -2.0979    1.9149    0.0000 C   0  0  0  0  0  0  0  0  0  0  0  0
   -2.8147    1.4979    0.0000 C   0  0  0  0  0  0  0  0  0  0  0  0
   -2.8115    0.6751    0.0000 C   0  0  0  0  0  0  0  0  0  0  0  0
   -3.3356    0.1585    0.0000 C   0  0  0  0  0  0  0  0  0  0  0  0
   -4.1599    0.1588    0.0000 C   0  0  0  0  0  0  0  0  0  0  0  0
   -4.5732   -0.5562    0.0000 C   0  0  0  0  0  0  0  0  0  0  0  0
   -4.1563   -1.2730    0.0000 C   0  0  0  0  0  0  0  0  0  0  0  0
   -3.3334   -1.2699    0.0000 C   0  0  0  0  0  0  0  0  0  0  0  0
   -5.3982   -0.5573    0.0000 O   0  0  0  0  0  0  0  0  0  0  0  0
   -2.0990    2.7399    0.0000 O   0  0  0  0  0  0  0  0  0  0  0  0
    1.1982   -0.5594    0.0000 C   0  0  0  0  0  0  0  0  0  0  0  0
    2.0208   -0.5583    0.0000 C   0  0  0  0  0  0  0  0  0  0  0  0
    1.1971    0.2656    0.0000 C   0  0  0  0  0  0  0  0  0  0  0  0
    1.2016   -1.3844    0.0000 C   0  0  0  0  0  0  0  0  0  0  0  0
    1.9131    0.6756    0.0000 C   0  0  0  0  0  0  0  0  0  0  0  0
    1.9124    1.4998    0.0000 C   0  0  0  0  0  0  0  0  0  0  0  0
    1.1969    1.9122    0.0000 C   0  0  0  0  0  0  0  0  0  0  0  0
    0.4806    1.4943    0.0000 C   0  0  0  0  0  0  0  0  0  0  0  0
    0.4848    0.6715    0.0000 C   0  0  0  0  0  0  0  0  0  0  0  0
    1.1947    2.7372    0.0000 O   0  0  0  0  0  0  0  0  0  0  0  0
   -1.3850    3.1533    0.0000 C   0  0  0  0  0  0  0  0  0  0  0  0
    0.4792    3.1478    0.0000 C   0  0  0  0  0  0  0  0  0  0  0  0
   -5.8116    0.1566    0.0000 C   0  0  0  0  0  0  0  0  0  0  0  0
 16 17  1  0
  8  9  1  0
 17 18  2  0
  2  5  1  0
 18 19  1  0
  9 10  2  0
 19 20  2  0
 20  1  1  0
 10  3  1  0
 18 21  1  0
  2  3  1  0
 13 22  1  0
  4 11  2  0
  8 23  1  0
  3  6  2  0
 23 24  1  0
 11 12  1  0
 23 25  1  0
  1  2  1  0
 23 26  1  0
 12 13  2  0
 25 27  2  0
  6  7  1  0
 27 28  1  0
 13 14  1  0
 28 29  2  0
  2  4  1  0
 29 30  1  0
 14 15  2  0
 30 31  2  0
 31 25  1  0
 15  4  1  0
 29 32  1  0
  7  8  2  0
 22 33  1  0
  1 16  2  0
 32 34  1  0
 21 35  1  0
M  END
> <chembl_id>
CHEMBL522621

> <chembl_pref_name>
None

$$$$
CHEMBL2011809
     RDKit          2D

 18 19  0  0  0  0  0  0  0  0999 V2000
    0.1110   -7.2124    0.0000 C   0  0  0  0  0  0  0  0  0  0  0  0
    0.1098   -8.0393    0.0000 C   0  0  0  0  0  0  0  0  0  0  0  0
    0.8242   -8.4520    0.0000 C   0  0  0  0  0  0  0  0  0  0  0  0
    1.5403   -8.0388    0.0000 C   0  0  0  0  0  0  0  0  0  0  0  0
    1.5374   -7.2088    0.0000 C   0  0  0  0  0  0  0  0  0  0  0  0
    0.8224   -6.7999    0.0000 C   0  0  0  0  0  0  0  0  0  0  0  0
   -0.6031   -6.8003    0.0000 N   0  0  0  0  0  0  0  0  0  0  0  0
   -1.3171   -7.2128    0.0000 C   0  0  0  0  0  0  0  0  0  0  0  0
   -2.0312   -6.8006    0.0000 N   0  0  0  0  0  0  0  0  0  0  0  0
   -1.3169   -8.0373    0.0000 O   0  0  0  0  0  0  0  0  0  0  0  0
   -2.7452   -7.2131    0.0000 C   0  0  0  0  0  0  0  0  0  0  0  0
   -3.4589   -6.7992    0.0000 C   0  0  0  0  0  0  0  0  0  0  0  0
   -4.1723   -7.2110    0.0000 C   0  0  0  0  0  0  0  0  0  0  0  0
   -4.1726   -8.0364    0.0000 C   0  0  0  0  0  0  0  0  0  0  0  0
   -3.4534   -8.4483    0.0000 C   0  0  0  0  0  0  0  0  0  0  0  0
   -2.7429   -8.0342    0.0000 C   0  0  0  0  0  0  0  0  0  0  0  0
    2.2499   -6.7938    0.0000 N   0  0  0  0  0  0  0  0  0  0  0  0
   -4.8863   -6.7985    0.0000 N   0  0  0  0  0  0  0  0  0  0  0  0
  8  9  1  0
  4  5  1  0
  8 10  2  0
  2  3  1  0
  9 11  1  0
  5  6  2  0
 11 12  2  0
  6  1  1  0
 12 13  1  0
  1  2  2  0
 13 14  2  0
  1  7  1  0
 14 15  1  0
  3  4  2  0
 15 16  2  0
 16 11  1  0
  7  8  1  0
  5 17  1  0
 13 18  1  0
M  END
> <chembl_id>
CHEMBL2011809

> <chembl_pref_name>
None

$$$$
CHEMBL1362157
     RDKit          2D

 28 31  0  0  0  0  0  0  0  0999 V2000
    4.2713    0.1046    0.0000 O   0  0  0  0  0  0  0  0  0  0  0  0
    2.7953    1.8270    0.0000 O   0  0  0  0  0  0  0  0  0  0  0  0
    1.4134    0.1046    0.0000 N   0  0  0  0  0  0  0  0  0  0  0  0
    0.6989   -1.1329    0.0000 N   0  0  0  0  0  0  0  0  0  0  0  0
    2.1279   -2.7829    0.0000 N   0  0  0  0  0  0  0  0  0  0  0  0
    2.8423   -0.7204    0.0000 C   0  0  0  0  0  0  0  0  0  0  0  0
    2.8423    0.1046    0.0000 C   0  0  0  0  0  0  0  0  0  0  0  0
    2.1279    0.5171    0.0000 C   0  0  0  0  0  0  0  0  0  0  0  0
    2.1279   -1.1329    0.0000 C   0  0  0  0  0  0  0  0  0  0  0  0
    1.4134   -0.7204    0.0000 C   0  0  0  0  0  0  0  0  0  0  0  0
    4.2713   -0.7204    0.0000 C   0  0  0  0  0  0  0  0  0  0  0  0
    3.5568   -1.1329    0.0000 C   0  0  0  0  0  0  0  0  0  0  0  0
    2.1279    1.3421    0.0000 C   0  0  0  0  0  0  0  0  0  0  0  0
    3.5568    0.5171    0.0000 C   0  0  0  0  0  0  0  0  0  0  0  0
    2.1279   -1.9579    0.0000 C   0  0  0  0  0  0  0  0  0  0  0  0
    1.4604    1.8270    0.0000 C   0  0  0  0  0  0  0  0  0  0  0  0
    5.0958   -0.7492    0.0000 C   0  0  0  0  0  0  0  0  0  0  0  0
    4.7085   -1.4200    0.0000 C   0  0  0  0  0  0  0  0  0  0  0  0
    2.5404    2.6117    0.0000 C   0  0  0  0  0  0  0  0  0  0  0  0
    1.7154    2.6117    0.0000 C   0  0  0  0  0  0  0  0  0  0  0  0
   -0.0155   -0.7204    0.0000 C   0  0  0  0  0  0  0  0  0  0  0  0
   -0.7300   -1.1329    0.0000 C   0  0  0  0  0  0  0  0  0  0  0  0
   -1.4445   -0.7204    0.0000 C   0  0  0  0  0  0  0  0  0  0  0  0
   -2.1590   -1.1329    0.0000 C   0  0  0  0  0  0  0  0  0  0  0  0
   -1.4445    0.1046    0.0000 C   0  0  0  0  0  0  0  0  0  0  0  0
   -2.8734   -0.7204    0.0000 C   0  0  0  0  0  0  0  0  0  0  0  0
   -2.1590    0.5171    0.0000 C   0  0  0  0  0  0  0  0  0  0  0  0
   -2.8734    0.1046    0.0000 C   0  0  0  0  0  0  0  0  0  0  0  0
  1 11  1  0
  1 14  1  0
  2 13  1  0
  2 19  1  0
  3  8  1  0
  3 10  2  0
  4 10  1  0
  4 21  1  0
  5 15  3  0
  6  7  1  0
  6  9  2  0
  6 12  1  0
  7  8  2  0
  7 14  1  0
  8 13  1  0
  9 10  1  0
  9 15  1  0
 11 12  1  0
 11 17  1  0
 11 18  1  0
 13 16  2  0
 16 20  1  0
 19 20  2  0
 21 22  1  0
 22 23  1  0
 23 24  2  0
 23 25  1  0
 24 26  1  0
 25 27  2  0
 26 28  2  0
 27 28  1  0
M  END
> <chembl_id>
CHEMBL1362157

> <chembl_pref_name>
None

$$$$
CHEMBL295587
     RDKit          2D

 20 21  0  0  0  0  0  0  0  0999 V2000
    7.6792   -7.9250    0.0000 C   0  0  0  0  0  0  0  0  0  0  0  0
    1.2500   -7.4667    0.0000 C   0  0  0  0  0  0  0  0  0  0  0  0
    6.9667   -7.5042    0.0000 N   0  0  0  0  0  0  0  0  0  0  0  0
    1.9625   -7.8917    0.0000 N   0  0  0  0  0  0  0  0  0  0  0  0
    8.4375   -7.5917    0.0000 N   0  0  0  0  0  0  0  0  0  0  0  0
    1.1667   -6.6542    0.0000 N   0  0  0  0  0  0  0  0  0  0  0  0
    7.7625   -8.7417    0.0000 S   0  0  0  0  0  0  0  0  0  0  0  0
    0.4917   -7.8042    0.0000 S   0  0  0  0  0  0  0  0  0  0  0  0
    6.2500   -7.9167    0.0000 C   0  0  0  0  0  0  0  0  0  0  0  0
    2.6792   -7.4792    0.0000 C   0  0  0  0  0  0  0  0  0  0  0  0
    0.3542   -6.4750    0.0000 C   0  0  0  0  0  0  0  0  0  0  0  0
    8.9792   -8.2042    0.0000 C   0  0  0  0  0  0  0  0  0  0  0  0
   -0.0583   -7.1875    0.0000 C   0  0  0  0  0  0  0  0  0  0  0  0
    8.5667   -8.9167    0.0000 C   0  0  0  0  0  0  0  0  0  0  0  0
    6.2417   -8.7417    0.0000 O   0  0  0  0  0  0  0  0  0  0  0  0
    2.6792   -6.6542    0.0000 O   0  0  0  0  0  0  0  0  0  0  0  0
    3.3917   -7.9000    0.0000 C   0  0  0  0  0  0  0  0  0  0  0  0
    5.5375   -7.5000    0.0000 C   0  0  0  0  0  0  0  0  0  0  0  0
    4.8167   -7.9042    0.0000 C   0  0  0  0  0  0  0  0  0  0  0  0
    4.1042   -7.4917    0.0000 C   0  0  0  0  0  0  0  0  0  0  0  0
  2  4  1  0
  3  1  1  0
  4 10  1  0
  5  1  2  0
  6  2  2  0
  7  1  1  0
  8  2  1  0
  9  3  1  0
 10 17  1  0
 11  6  1  0
 12  5  1  0
 13  8  1  0
 14  7  1  0
 15  9  2  0
 16 10  2  0
 17 20  1  0
 18  9  1  0
 19 18  1  0
 20 19  1  0
 14 12  2  0
 11 13  2  0
M  END
> <chembl_id>
CHEMBL295587

> <chembl_pref_name>
None

$$$$
CHEMBL5209332
     RDKit          2D

 32 35  0  0  0  0  0  0  0  0999 V2000
   -3.2133   -0.0832    0.0000 C   0  0  0  0  0  0  0  0  0  0  0  0
   -2.4987    0.3290    0.0000 C   0  0  0  0  0  0  0  0  0  0  0  0
   -1.7869   -0.0828    0.0000 C   0  0  0  0  0  0  0  0  0  0  0  0
   -1.7869   -0.9080    0.0000 C   0  0  0  0  0  0  0  0  0  0  0  0
   -2.4969   -1.3198    0.0000 C   0  0  0  0  0  0  0  0  0  0  0  0
   -3.2133   -0.9117    0.0000 C   0  0  0  0  0  0  0  0  0  0  0  0
   -1.0742    0.3280    0.0000 C   0  0  0  0  0  0  0  0  0  0  0  0
   -0.3592   -0.0844    0.0000 C   0  0  0  0  0  0  0  0  0  0  0  0
   -0.3574   -0.9055    0.0000 C   0  0  0  0  0  0  0  0  0  0  0  0
   -1.0691   -1.3221    0.0000 N   0  0  0  0  0  0  0  0  0  0  0  0
    0.3571   -1.3180    0.0000 C   0  0  0  0  0  0  0  0  0  0  0  0
    1.0719   -0.9056    0.0000 C   0  0  0  0  0  0  0  0  0  0  0  0
    1.7840   -1.3176    0.0000 C   0  0  0  0  0  0  0  0  0  0  0  0
    1.7840   -2.1431    0.0000 C   0  0  0  0  0  0  0  0  0  0  0  0
    1.0737   -2.5550    0.0000 C   0  0  0  0  0  0  0  0  0  0  0  0
    0.3571   -2.1468    0.0000 C   0  0  0  0  0  0  0  0  0  0  0  0
   -1.0742    1.1532    0.0000 O   0  0  0  0  0  0  0  0  0  0  0  0
    2.4987   -2.5556    0.0000 O   0  0  0  0  0  0  0  0  0  0  0  0
    3.2133   -2.1431    0.0000 C   0  0  0  0  0  0  0  0  0  0  0  0
    3.9279   -2.5556    0.0000 C   0  0  0  0  0  0  0  0  0  0  0  0
    4.6426   -2.1431    0.0000 C   0  0  0  0  0  0  0  0  0  0  0  0
   -0.3595    1.5658    0.0000 C   0  0  0  0  0  0  0  0  0  0  0  0
    0.3550    1.1532    0.0000 C   0  0  0  0  0  0  0  0  0  0  0  0
    1.0696    1.5658    0.0000 N   0  0  0  0  0  0  0  0  0  0  0  0
   -3.9280    0.3293    0.0000 O   0  0  0  0  0  0  0  0  0  0  0  0
   -4.6426   -0.0832    0.0000 C   0  0  0  0  0  0  0  0  0  0  0  0
   -2.4969   -2.1449    0.0000 O   0  0  0  0  0  0  0  0  0  0  0  0
   -3.2116   -2.5575    0.0000 C   0  0  0  0  0  0  0  0  0  0  0  0
    1.1558    2.3860    0.0000 C   0  0  0  0  0  0  0  0  0  0  0  0
    1.9627    2.5575    0.0000 C   0  0  0  0  0  0  0  0  0  0  0  0
    2.3750    1.8433    0.0000 C   0  0  0  0  0  0  0  0  0  0  0  0
    1.8231    1.2303    0.0000 C   0  0  0  0  0  0  0  0  0  0  0  0
  2  1  2  0
  3  2  1  0
  4  3  2  0
  5  4  1  0
  1  6  1  0
  6  5  2  0
  3  7  1  0
  8  7  2  0
  9  8  1  0
 10  9  2  0
  4 10  1  0
 11  9  1  0
 12 11  2  0
 13 12  1  0
 14 13  2  0
 15 14  1  0
 11 16  1  0
 16 15  2  0
  7 17  1  0
 14 18  1  0
 18 19  1  0
 19 20  1  0
 20 21  1  0
 17 22  1  0
 22 23  1  0
 23 24  1  0
  1 25  1  0
 25 26  1  0
  5 27  1  0
 27 28  1  0
 29 24  1  0
 29 30  1  0
 30 31  1  0
 31 32  1  0
 32 24  1  0
M  END
> <chembl_id>
CHEMBL5209332

> <chembl_pref_name>
None

$$$$
CHEMBL3195767
     RDKit          2D

 22 24  0  0  1  0  0  0  0  0999 V2000
    4.7388    7.1914    0.0000 Br  0  0  0  0  0  0  0  0  0  0  0  0
    0.0625    7.1452    0.0000 Br  0  0  0  0  0  0  0  0  0  0  0  0
   -1.1784    0.3855    0.0000 S   0  0  0  0  0  0  0  0  0  0  0  0
    4.7655    4.4915    0.0000 O   0  0  0  0  0  0  0  0  0  0  0  0
   -0.1225   -1.7068    0.0000 N   0  0  0  0  0  0  0  0  0  0  0  0
    1.1473    2.0562    0.0000 N   0  0  0  0  0  0  0  0  0  0  0  0
    1.1590    0.5554    0.0000 N   0  0  0  0  0  0  0  0  0  0  0  0
   -1.4111   -3.9077    0.0000 C   0  0  0  0  0  0  0  0  0  0  0  0
   -1.4111   -2.4655    0.0000 C   0  0  0  0  0  0  0  0  0  0  0  0
    2.4289    4.3183    0.0000 C   0  0  0  0  0  0  0  0  0  0  0  0
    3.7204    5.0812    0.0000 C   0  0  0  0  0  0  0  0  0  0  0  0
   -3.9387   -2.5121    0.0000 C   0  0  0  0  0  0  0  0  0  0  0  0
    3.7056    6.5812    0.0000 C   0  0  0  0  0  0  0  0  0  0  0  0
   -2.2485   -2.4655    0.0000 C   0  0  0  0  0  0  0  0  0  0  0  0
   -2.7137   -1.7522    0.0000 C   0  0  0  0  0  0  0  0  0  0  0  0
    1.1076    6.5555    0.0000 C   0  0  0  0  0  0  0  0  0  0  0  0
    1.1225    5.0556    0.0000 C   0  0  0  0  0  0  0  0  0  0  0  0
   -2.6361   -4.6675    0.0000 C   0  0  0  0  0  0  0  0  0  0  0  0
    2.3992    7.3183    0.0000 C   0  0  0  0  0  0  0  0  0  0  0  0
   -3.9077   -3.9387    0.0000 C   0  0  0  0  0  0  0  0  0  0  0  0
    2.4406    2.8176    0.0000 C   0  0  0  0  0  0  0  0  0  0  0  0
   -0.1343   -0.2060    0.0000 C   0  0  0  0  0  0  0  0  0  0  0  0
  1 13  1  0
  2 16  1  0
  3 22  2  0
  4 11  1  0
  9  5  1  6
  5 22  1  0
  6  7  1  0
  6 21  2  0
  7 22  1  0
  8  9  1  0
  8 14  1  0
  8 18  1  0
  9 15  1  0
 10 11  1  0
 10 17  2  0
 10 21  1  0
 11 13  2  0
 12 14  1  0
 12 15  1  0
 12 20  1  0
 13 19  1  0
 16 17  1  0
 16 19  2  0
 18 20  2  0
M  END
> <chembl_id>
CHEMBL3195767

> <chembl_pref_name>
None

$$$$
CHEMBL1389429
     RDKit          2D

 34 38  0  0  0  0  0  0  0  0999 V2000
   -2.0532   -3.0995    0.0000 S   0  0  0  0  0  0  0  0  0  0  0  0
   -5.2206   -2.5727    0.0000 O   0  0  0  0  0  0  0  0  0  0  0  0
   -5.7752   -0.8657    0.0000 O   0  0  0  0  0  0  0  0  0  0  0  0
   -3.7613   -3.3264    0.0000 O   0  0  0  0  0  0  0  0  0  0  0  0
   -1.7434    1.0032    0.0000 O   0  0  0  0  0  0  0  0  0  0  0  0
   -4.3231   -0.6357    0.0000 N   0  0  0  0  0  0  0  0  0  0  0  0
   -3.6087    0.6018    0.0000 N   0  0  0  0  0  0  0  0  0  0  0  0
   -3.6557   -1.1206    0.0000 C   0  0  0  0  0  0  0  0  0  0  0  0
   -3.9106   -1.9052    0.0000 C   0  0  0  0  0  0  0  0  0  0  0  0
   -4.7356   -1.9052    0.0000 C   0  0  0  0  0  0  0  0  0  0  0  0
   -4.9906   -1.1206    0.0000 C   0  0  0  0  0  0  0  0  0  0  0  0
   -2.8711   -0.8657    0.0000 C   0  0  0  0  0  0  0  0  0  0  0  0
   -3.4257   -2.5727    0.0000 C   0  0  0  0  0  0  0  0  0  0  0  0
   -4.3231    0.1893    0.0000 C   0  0  0  0  0  0  0  0  0  0  0  0
   -2.6052   -2.4864    0.0000 C   0  0  0  0  0  0  0  0  0  0  0  0
   -2.6995   -0.0587    0.0000 C   0  0  0  0  0  0  0  0  0  0  0  0
   -2.2580   -1.4177    0.0000 C   0  0  0  0  0  0  0  0  0  0  0  0
   -5.0376    0.6018    0.0000 C   0  0  0  0  0  0  0  0  0  0  0  0
   -1.9149    0.1962    0.0000 C   0  0  0  0  0  0  0  0  0  0  0  0
   -3.6087    1.4268    0.0000 C   0  0  0  0  0  0  0  0  0  0  0  0
   -2.1927   -1.7720    0.0000 C   0  0  0  0  0  0  0  0  0  0  0  0
   -1.4734   -1.1628    0.0000 C   0  0  0  0  0  0  0  0  0  0  0  0
   -1.3018   -0.3558    0.0000 C   0  0  0  0  0  0  0  0  0  0  0  0
   -5.0376    1.4268    0.0000 C   0  0  0  0  0  0  0  0  0  0  0  0
   -4.3231    1.8393    0.0000 C   0  0  0  0  0  0  0  0  0  0  0  0
   -1.2995   -2.7640    0.0000 C   0  0  0  0  0  0  0  0  0  0  0  0
   -1.3858   -1.9435    0.0000 C   0  0  0  0  0  0  0  0  0  0  0  0
   -0.9588    1.2581    0.0000 C   0  0  0  0  0  0  0  0  0  0  0  0
   -2.8942    1.8393    0.0000 C   0  0  0  0  0  0  0  0  0  0  0  0
   -0.7872    2.0651    0.0000 C   0  0  0  0  0  0  0  0  0  0  0  0
   -0.3457    0.7061    0.0000 C   0  0  0  0  0  0  0  0  0  0  0  0
   -0.0026    2.3201    0.0000 C   0  0  0  0  0  0  0  0  0  0  0  0
    0.4389    0.9610    0.0000 C   0  0  0  0  0  0  0  0  0  0  0  0
    0.6105    1.7680    0.0000 C   0  0  0  0  0  0  0  0  0  0  0  0
  1 15  1  0
  1 26  1  0
  2 10  1  0
  3 11  2  0
  4 13  2  0
  5 19  1  0
  5 28  1  0
  6  8  1  0
  6 11  1  0
  6 14  1  0
  7 14  2  0
  7 20  1  0
  8  9  1  0
  8 12  1  0
  9 10  2  0
  9 13  1  0
 10 11  1  0
 12 16  1  0
 12 17  2  0
 13 15  1  0
 14 18  1  0
 15 21  2  0
 16 19  2  0
 17 22  1  0
 18 24  2  0
 19 23  1  0
 20 25  2  0
 20 29  1  0
 21 27  1  0
 22 23  2  0
 24 25  1  0
 26 27  2  0
 28 30  2  0
 28 31  1  0
 30 32  1  0
 31 33  2  0
 32 34  2  0
 33 34  1  0
M  END
> <chembl_id>
CHEMBL1389429

> <chembl_pref_name>
None

$$$$
CHEMBL4584998
     RDKit          2D

 17 20  0  0  0  0  0  0  0  0999 V2000
    9.7098   -8.7944    0.0000 N   0  0  0  0  0  0  0  0  0  0  0  0
    9.0469   -8.3122    0.0000 N   0  0  0  0  0  0  0  0  0  0  0  0
    8.3881   -8.7944    0.0000 C   0  0  0  0  0  0  0  0  0  0  0  0
    9.4554   -9.5711    0.0000 C   0  0  0  0  0  0  0  0  0  0  0  0
    8.6383   -9.5711    0.0000 N   0  0  0  0  0  0  0  0  0  0  0  0
    8.3857  -10.3483    0.0000 N   0  0  0  0  0  0  0  0  0  0  0  0
    9.0469  -10.8287    0.0000 C   0  0  0  0  0  0  0  0  0  0  0  0
    9.7079  -10.3483    0.0000 S   0  0  0  0  0  0  0  0  0  0  0  0
    9.0469  -11.6459    0.0000 C   0  0  0  0  0  0  0  0  0  0  0  0
    8.3395  -12.0512    0.0000 C   0  0  0  0  0  0  0  0  0  0  0  0
    8.3391  -12.8676    0.0000 C   0  0  0  0  0  0  0  0  0  0  0  0
    9.0474  -13.2770    0.0000 C   0  0  0  0  0  0  0  0  0  0  0  0
    9.7574  -12.8640    0.0000 C   0  0  0  0  0  0  0  0  0  0  0  0
    9.7543  -12.0489    0.0000 C   0  0  0  0  0  0  0  0  0  0  0  0
   10.4582  -11.6344    0.0000 C   0  0  0  0  0  0  0  0  0  0  0  0
   11.2754  -11.6305    0.0000 C   0  0  0  0  0  0  0  0  0  0  0  0
   10.8634  -10.9248    0.0000 C   0  0  0  0  0  0  0  0  0  0  0  0
  4  1  2  0
  1  2  1  0
  2  3  2  0
  3  5  1  0
  4  5  1  0
  5  6  1  0
  6  7  2  0
  7  8  1  0
  8  4  1  0
  7  9  1  0
  9 10  2  0
 10 11  1  0
 11 12  2  0
 12 13  1  0
 13 14  2  0
 14  9  1  0
 16 15  1  0
 17 16  1  0
 15 17  1  0
 14 15  1  0
M  END
> <chembl_id>
CHEMBL4584998

> <chembl_pref_name>
None

$$$$
CHEMBL3192400
     RDKit          2D

 28 29  0  0  0  0  0  0  0  0999 V2000
    2.5988   -1.5004    0.0000 S   0  0  0  0  0  0  0  0  0  0  0  0
    3.6377   -2.1009    0.0000 O   0  0  0  0  0  0  0  0  0  0  0  0
    2.5984   -2.7004    0.0000 O   0  0  0  0  0  0  0  0  0  0  0  0
   -3.6375   -0.9049    0.0000 O   0  0  0  0  0  0  0  0  0  0  0  0
   -4.1502   -8.1110    0.0000 O   0  0  0  0  0  0  0  0  0  0  0  0
   -6.4884   -9.4610    0.0000 O   0  0  0  0  0  0  0  0  0  0  0  0
   -8.8267   -8.1111    0.0000 O   0  0  0  0  0  0  0  0  0  0  0  0
    3.8990   -0.7508    0.0000 N   0  0  0  0  0  0  0  0  0  0  0  0
   -2.5951   -3.0039    0.0000 N   0  0  0  0  0  0  0  0  0  0  0  0
   -3.8933   -3.7570    0.0000 N   0  0  0  0  0  0  0  0  0  0  0  0
    1.2990   -0.7500    0.0000 C   0  0  0  0  0  0  0  0  0  0  0  0
    0.0000   -1.5000    0.0000 C   0  0  0  0  0  0  0  0  0  0  0  0
   -1.2990   -0.7500    0.0000 C   0  0  0  0  0  0  0  0  0  0  0  0
    1.2990    0.7500    0.0000 C   0  0  0  0  0  0  0  0  0  0  0  0
   -2.5972   -1.5031    0.0000 C   0  0  0  0  0  0  0  0  0  0  0  0
   -5.1894   -7.5110    0.0000 C   0  0  0  0  0  0  0  0  0  0  0  0
   -5.1894   -6.0109    0.0000 C   0  0  0  0  0  0  0  0  0  0  0  0
   -1.2990    0.7500    0.0000 C   0  0  0  0  0  0  0  0  0  0  0  0
   -6.4884   -8.2610    0.0000 C   0  0  0  0  0  0  0  0  0  0  0  0
    0.0000    1.5000    0.0000 C   0  0  0  0  0  0  0  0  0  0  0  0
   -7.7875   -7.5110    0.0000 C   0  0  0  0  0  0  0  0  0  0  0  0
    5.1988   -1.5012    0.0000 C   0  0  0  0  0  0  0  0  0  0  0  0
    3.9026    0.7500    0.0000 C   0  0  0  0  0  0  0  0  0  0  0  0
   -6.4885   -5.2610    0.0000 C   0  0  0  0  0  0  0  0  0  0  0  0
   -3.8912   -5.2578    0.0000 C   0  0  0  0  0  0  0  0  0  0  0  0
   -7.7875   -6.0110    0.0000 C   0  0  0  0  0  0  0  0  0  0  0  0
    6.2384   -0.9019    0.0000 C   0  0  0  0  0  0  0  0  0  0  0  0
    4.9429    1.3482    0.0000 C   0  0  0  0  0  0  0  0  0  0  0  0
  1  2  2  0
  1  3  2  0
  1  8  1  0
  1 11  1  0
  4 15  2  0
  5 16  1  0
  6 19  1  0
  7 21  1  0
  8 22  1  0
  8 23  1  0
  9 10  1  0
  9 15  1  0
 10 25  2  0
 11 12  1  0
 11 14  2  0
 12 13  2  0
 13 15  1  0
 13 18  1  0
 14 20  1  0
 16 17  1  0
 16 19  2  0
 17 24  2  0
 17 25  1  0
 18 20  2  0
 19 21  1  0
 21 26  2  0
 22 27  1  0
 23 28  1  0
 24 26  1  0
M  END
> <chembl_id>
CHEMBL3192400

> <chembl_pref_name>
None

$$$$
CHEMBL492771
     RDKit          2D

 23 24  0  0  0  0  0  0  0  0999 V2000
    7.0505   -3.4746    0.0000 C   0  0  0  0  0  0  0  0  0  0  0  0
    7.0505   -2.6496    0.0000 C   0  0  0  0  0  0  0  0  0  0  0  0
    6.3360   -2.2371    0.0000 C   0  0  0  0  0  0  0  0  0  0  0  0
    5.6216   -2.6496    0.0000 C   0  0  0  0  0  0  0  0  0  0  0  0
    5.6216   -3.4746    0.0000 C   0  0  0  0  0  0  0  0  0  0  0  0
    6.3360   -3.8871    0.0000 C   0  0  0  0  0  0  0  0  0  0  0  0
    4.9071   -3.8871    0.0000 C   0  0  0  0  0  0  0  0  0  0  0  0
    4.9071   -4.7121    0.0000 C   0  0  0  0  0  0  0  0  0  0  0  0
    4.1926   -3.4746    0.0000 O   0  0  0  0  0  0  0  0  0  0  0  0
    4.1926   -5.1246    0.0000 C   0  0  0  0  0  0  0  0  0  0  0  0
    4.1926   -5.9496    0.0000 C   0  0  0  0  0  0  0  0  0  0  0  0
    3.4782   -4.7121    0.0000 O   0  0  0  0  0  0  0  0  0  0  0  0
    3.4782   -6.3621    0.0000 O   0  0  0  0  0  0  0  0  0  0  0  0
    4.9071   -6.3621    0.0000 O   0  0  0  0  0  0  0  0  0  0  0  0
    6.3360   -1.4121    0.0000 O   0  0  0  0  0  0  0  0  0  0  0  0
    5.6216   -0.9996    0.0000 C   0  0  0  0  0  0  0  0  0  0  0  0
    5.6216   -0.1746    0.0000 C   0  0  0  0  0  0  0  0  0  0  0  0
    4.9071    0.2379    0.0000 C   0  0  0  0  0  0  0  0  0  0  0  0
    4.9071    1.0629    0.0000 C   0  0  0  0  0  0  0  0  0  0  0  0
    5.6216    1.4754    0.0000 C   0  0  0  0  0  0  0  0  0  0  0  0
    6.3360    1.0629    0.0000 C   0  0  0  0  0  0  0  0  0  0  0  0
    6.3360    0.2379    0.0000 C   0  0  0  0  0  0  0  0  0  0  0  0
    5.6216    2.3004    0.0000 Cl  0  0  0  0  0  0  0  0  0  0  0  0
  5  6  2  0
 10 12  1  0
  6  1  1  0
 11 13  2  0
  1  2  2  0
 11 14  1  0
  5  7  1  0
  3 15  1  0
  3  4  2  0
 15 16  1  0
  7  8  1  0
 16 17  1  0
 17 18  2  0
  7  9  2  0
 18 19  1  0
  4  5  1  0
 19 20  2  0
  8 10  2  0
 20 21  1  0
  2  3  1  0
 21 22  2  0
 22 17  1  0
 10 11  1  0
 20 23  1  0
M  END
> <chembl_id>
CHEMBL492771

> <chembl_pref_name>
None

$$$$
CHEMBL511384
     RDKit          2D

 24 25  0  0  0  0  0  0  0  0999 V2000
    4.2402    0.8959    0.0000 C   0  0  0  0  0  0  0  0  0  0  0  0
    4.2391    0.0685    0.0000 C   0  0  0  0  0  0  0  0  0  0  0  0
    4.9539   -0.3444    0.0000 C   0  0  0  0  0  0  0  0  0  0  0  0
    5.6703    0.0690    0.0000 C   0  0  0  0  0  0  0  0  0  0  0  0
    5.6675    0.8995    0.0000 C   0  0  0  0  0  0  0  0  0  0  0  0
    4.9521    1.3086    0.0000 C   0  0  0  0  0  0  0  0  0  0  0  0
    6.3855   -0.3424    0.0000 C   0  0  0  0  0  0  0  0  0  0  0  0
    6.3867   -1.1674    0.0000 O   0  0  0  0  0  0  0  0  0  0  0  0
    3.5257    1.3082    0.0000 C   0  0  0  0  0  0  0  0  0  0  0  0
    2.8113    0.8955    0.0000 N   0  0  0  0  0  0  0  0  0  0  0  0
    2.0967    1.3079    0.0000 C   0  0  0  0  0  0  0  0  0  0  0  0
    1.3824    0.8952    0.0000 C   0  0  0  0  0  0  0  0  0  0  0  0
    2.0965    2.1329    0.0000 O   0  0  0  0  0  0  0  0  0  0  0  0
    0.6292    1.2345    0.0000 N   0  0  0  0  0  0  0  0  0  0  0  0
    0.0773    0.6213    0.0000 C   0  0  0  0  0  0  0  0  0  0  0  0
    0.4900   -0.0931    0.0000 C   0  0  0  0  0  0  0  0  0  0  0  0
    1.2969    0.0787    0.0000 C   0  0  0  0  0  0  0  0  0  0  0  0
   -0.7432    0.7073    0.0000 C   0  0  0  0  0  0  0  0  0  0  0  0
   -1.2279    0.0398    0.0000 C   0  0  0  0  0  0  0  0  0  0  0  0
   -2.0484    0.1258    0.0000 C   0  0  0  0  0  0  0  0  0  0  0  0
   -2.5332   -0.5417    0.0000 C   0  0  0  0  0  0  0  0  0  0  0  0
   -2.3842    0.8794    0.0000 O   0  0  0  0  0  0  0  0  0  0  0  0
    7.8144   -0.3402    0.0000 C   0  0  0  0  0  0  0  0  0  0  0  0
    7.0993    0.0712    0.0000 O   0  0  0  0  0  0  0  0  0  0  0  0
  5  6  2  0
 10 11  1  0
  6  1  1  0
 11 12  1  0
  1  2  2  0
 11 13  2  0
 12 14  1  0
  4  7  1  0
  3  4  2  0
  7  8  2  0
 14 15  1  0
 15 16  2  0
 16 17  1  0
 17 12  2  0
  7 24  1  0
 15 18  1  0
  4  5  1  0
 18 19  2  0
  1  9  1  0
 19 20  1  0
  2  3  1  0
 20 21  1  0
  9 10  1  0
 20 22  2  0
 24 23  1  0
M  END
> <chembl_id>
CHEMBL511384

> <chembl_pref_name>
None

$$$$
CHEMBL1529115
     RDKit          2D

 26 28  0  0  0  0  0  0  0  0999 V2000
   -3.5794    2.0698    0.0000 S   0  0  0  0  0  0  0  0  0  0  0  0
   -3.5794    0.4198    0.0000 S   0  0  0  0  0  0  0  0  0  0  0  0
   -3.0491    2.7018    0.0000 O   0  0  0  0  0  0  0  0  0  0  0  0
   -4.1097    2.7018    0.0000 O   0  0  0  0  0  0  0  0  0  0  0  0
   -3.0491   -0.2122    0.0000 O   0  0  0  0  0  0  0  0  0  0  0  0
   -4.1097   -0.2122    0.0000 O   0  0  0  0  0  0  0  0  0  0  0  0
   -2.1505   -0.4052    0.0000 O   0  0  0  0  0  0  0  0  0  0  0  0
   -1.4360    0.8323    0.0000 N   0  0  0  0  0  0  0  0  0  0  0  0
   -2.8650    1.6573    0.0000 C   0  0  0  0  0  0  0  0  0  0  0  0
   -2.8650    0.8323    0.0000 C   0  0  0  0  0  0  0  0  0  0  0  0
   -2.1505    2.0698    0.0000 C   0  0  0  0  0  0  0  0  0  0  0  0
   -2.1505    0.4198    0.0000 C   0  0  0  0  0  0  0  0  0  0  0  0
   -4.2939    1.6573    0.0000 C   0  0  0  0  0  0  0  0  0  0  0  0
   -4.2939    0.8323    0.0000 C   0  0  0  0  0  0  0  0  0  0  0  0
   -2.1505    2.8948    0.0000 C   0  0  0  0  0  0  0  0  0  0  0  0
   -1.4360    1.6573    0.0000 C   0  0  0  0  0  0  0  0  0  0  0  0
   -0.7216    0.4198    0.0000 C   0  0  0  0  0  0  0  0  0  0  0  0
   -1.4360    3.3073    0.0000 C   0  0  0  0  0  0  0  0  0  0  0  0
   -0.7216    2.0698    0.0000 C   0  0  0  0  0  0  0  0  0  0  0  0
   -0.7216    2.8948    0.0000 C   0  0  0  0  0  0  0  0  0  0  0  0
   -0.0071    0.8323    0.0000 C   0  0  0  0  0  0  0  0  0  0  0  0
   -0.7216   -0.4052    0.0000 C   0  0  0  0  0  0  0  0  0  0  0  0
    0.7074    0.4198    0.0000 C   0  0  0  0  0  0  0  0  0  0  0  0
   -0.0071   -0.8177    0.0000 C   0  0  0  0  0  0  0  0  0  0  0  0
    0.7074   -0.4052    0.0000 C   0  0  0  0  0  0  0  0  0  0  0  0
    1.4219   -0.8177    0.0000 C   0  0  0  0  0  0  0  0  0  0  0  0
  1  3  2  0
  1  4  2  0
  1  9  1  0
  1 13  1  0
  2  5  2  0
  2  6  2  0
  2 10  1  0
  2 14  1  0
  7 12  2  0
  8 12  1  0
  8 17  1  0
  9 10  2  0
  9 11  1  0
 10 12  1  0
 11 15  2  0
 11 16  1  0
 13 14  1  0
 15 18  1  0
 16 19  2  0
 17 21  2  0
 17 22  1  0
 18 20  2  0
 19 20  1  0
 21 23  1  0
 22 24  2  0
 23 25  2  0
 24 25  1  0
 25 26  1  0
M  END
> <chembl_id>
CHEMBL1529115

> <chembl_pref_name>
None

$$$$
CHEMBL4089629
     RDKit          2D

 38 40  0  0  0  0  0  0  0  0999 V2000
   11.6553  -12.5055    0.0000 O   0  0  0  0  0  0  0  0  0  0  0  0
   11.2508  -11.7997    0.0000 S   0  0  0  0  0  0  0  0  0  0  0  0
   10.8419  -12.5029    0.0000 O   0  0  0  0  0  0  0  0  0  0  0  0
    3.7682  -11.8988    0.0000 O   0  0  0  0  0  0  0  0  0  0  0  0
    4.1809  -12.6087    0.0000 S   0  0  0  0  0  0  0  0  0  0  0  0
    4.5893  -11.8963    0.0000 O   0  0  0  0  0  0  0  0  0  0  0  0
    7.0122  -11.7915    0.0000 C   0  0  0  0  0  0  0  0  0  0  0  0
    7.0122  -12.6087    0.0000 N   0  0  0  0  0  0  0  0  0  0  0  0
    7.7174  -13.0132    0.0000 C   0  0  0  0  0  0  0  0  0  0  0  0
    8.4227  -12.6087    0.0000 C   0  0  0  0  0  0  0  0  0  0  0  0
    8.4227  -11.7915    0.0000 N   0  0  0  0  0  0  0  0  0  0  0  0
    7.7174  -11.3788    0.0000 C   0  0  0  0  0  0  0  0  0  0  0  0
    9.1316  -11.3850    0.0000 C   0  0  0  0  0  0  0  0  0  0  0  0
    9.8381  -11.7956    0.0000 C   0  0  0  0  0  0  0  0  0  0  0  0
   10.5470  -11.3891    0.0000 N   0  0  0  0  0  0  0  0  0  0  0  0
    6.3050  -13.0183    0.0000 C   0  0  0  0  0  0  0  0  0  0  0  0
    5.5967  -12.6107    0.0000 C   0  0  0  0  0  0  0  0  0  0  0  0
    4.8896  -13.0204    0.0000 N   0  0  0  0  0  0  0  0  0  0  0  0
    3.4742  -13.0224    0.0000 C   0  0  0  0  0  0  0  0  0  0  0  0
    2.7668  -12.6132    0.0000 C   0  0  0  0  0  0  0  0  0  0  0  0
    2.0601  -13.0221    0.0000 C   0  0  0  0  0  0  0  0  0  0  0  0
    2.0609  -13.8402    0.0000 C   0  0  0  0  0  0  0  0  0  0  0  0
    2.7742  -14.2476    0.0000 C   0  0  0  0  0  0  0  0  0  0  0  0
    3.4779  -13.8363    0.0000 C   0  0  0  0  0  0  0  0  0  0  0  0
   11.9624  -11.3933    0.0000 C   0  0  0  0  0  0  0  0  0  0  0  0
   12.6658  -11.8073    0.0000 C   0  0  0  0  0  0  0  0  0  0  0  0
   13.3742  -11.4014    0.0000 C   0  0  0  0  0  0  0  0  0  0  0  0
   13.3770  -10.5834    0.0000 C   0  0  0  0  0  0  0  0  0  0  0  0
   12.6656  -10.1729    0.0000 C   0  0  0  0  0  0  0  0  0  0  0  0
   11.9601  -10.5811    0.0000 C   0  0  0  0  0  0  0  0  0  0  0  0
    1.3520  -12.6142    0.0000 O   0  0  0  0  0  0  0  0  0  0  0  0
    1.3513  -11.7970    0.0000 C   0  0  0  0  0  0  0  0  0  0  0  0
    1.3543  -14.2508    0.0000 O   0  0  0  0  0  0  0  0  0  0  0  0
    0.6455  -13.8441    0.0000 C   0  0  0  0  0  0  0  0  0  0  0  0
   12.6651   -9.3557    0.0000 O   0  0  0  0  0  0  0  0  0  0  0  0
   13.3725   -8.9467    0.0000 C   0  0  0  0  0  0  0  0  0  0  0  0
   14.0854  -10.1759    0.0000 O   0  0  0  0  0  0  0  0  0  0  0  0
   14.7925  -10.5857    0.0000 C   0  0  0  0  0  0  0  0  0  0  0  0
  2  1  2  0
  3  2  2  0
  5  4  2  0
  6  5  2  0
  7  8  1  0
  7 12  1  0
  8  9  1  0
  9 10  1  0
 10 11  1  0
 11 12  1  0
 11 13  1  0
 13 14  1  0
 14 15  1  0
  8 16  1  0
 16 17  1  0
 17 18  1  0
 18  5  1  0
  5 19  1  0
 19 20  2  0
 20 21  1  0
 21 22  2  0
 22 23  1  0
 23 24  2  0
 24 19  1  0
 15  2  1  0
  2 25  1  0
 25 26  2  0
 26 27  1  0
 27 28  2  0
 28 29  1  0
 29 30  2  0
 30 25  1  0
 21 31  1  0
 31 32  1  0
 22 33  1  0
 33 34  1  0
 29 35  1  0
 35 36  1  0
 28 37  1  0
 37 38  1  0
M  END
> <chembl_id>
CHEMBL4089629

> <chembl_pref_name>
None

$$$$
CHEMBL117
     RDKit          2D

 19 21  0  0  0  0  0  0  0  0999 V2000
   -0.6957   -0.1468    0.0000 C   0  0  0  0  0  0  0  0  0  0  0  0
   -0.6957    0.6782    0.0000 C   0  0  0  0  0  0  0  0  0  0  0  0
    0.0188    1.0907    0.0000 C   0  0  0  0  0  0  0  0  0  0  0  0
    0.7332    0.6782    0.0000 C   0  0  0  0  0  0  0  0  0  0  0  0
    1.4477    1.0907    0.0000 C   0  0  0  0  0  0  0  0  0  0  0  0
    2.1622    0.6782    0.0000 C   0  0  0  0  0  0  0  0  0  0  0  0
    2.1622   -0.1468    0.0000 C   0  0  0  0  0  0  0  0  0  0  0  0
    1.4477   -0.5593    0.0000 C   0  0  0  0  0  0  0  0  0  0  0  0
    0.7332   -0.1468    0.0000 C   0  0  0  0  0  0  0  0  0  0  0  0
    0.0188   -0.5593    0.0000 O   0  0  0  0  0  0  0  0  0  0  0  0
    0.0188    1.9157    0.0000 O   0  0  0  0  0  0  0  0  0  0  0  0
    1.4477    1.9157    0.0000 O   0  0  0  0  0  0  0  0  0  0  0  0
    2.8766   -0.5593    0.0000 O   0  0  0  0  0  0  0  0  0  0  0  0
   -1.4102   -1.3843    0.0000 C   0  0  0  0  0  0  0  0  0  0  0  0
   -2.1247   -1.7968    0.0000 C   0  0  0  0  0  0  0  0  0  0  0  0
   -2.8391   -1.3843    0.0000 C   0  0  0  0  0  0  0  0  0  0  0  0
   -2.8391   -0.5593    0.0000 C   0  0  0  0  0  0  0  0  0  0  0  0
   -2.1247   -0.1468    0.0000 C   0  0  0  0  0  0  0  0  0  0  0  0
   -1.4102   -0.5593    0.0000 C   0  0  0  0  0  0  0  0  0  0  0  0
  1  2  2  0
  1 10  1  0
 19  1  1  0
  2  3  1  0
  3  4  1  0
  3 11  2  0
  4  5  2  0
  9  4  1  0
  5  6  1  0
  5 12  1  0
  6  7  2  0
  7  8  1  0
  7 13  1  0
  9  8  2  0
  9 10  1  0
 14 15  2  0
 19 14  1  0
 15 16  1  0
 16 17  2  0
 17 18  1  0
 19 18  2  0
M  END
> <chembl_id>
CHEMBL117

> <chembl_pref_name>
CHRYSIN

$$$$
CHEMBL1366482
     RDKit          2D

 27 30  0  0  0  0  0  0  0  0999 V2000
   -0.6026   -5.0582    0.0000 F   0  0  0  0  0  0  0  0  0  0  0  0
   -0.6637   -3.8931    0.0000 F   0  0  0  0  0  0  0  0  0  0  0  0
   -1.7678   -5.1193    0.0000 F   0  0  0  0  0  0  0  0  0  0  0  0
    1.3012   -0.3350    0.0000 O   0  0  0  0  0  0  0  0  0  0  0  0
   -1.3452   -1.4526    0.0000 O   0  0  0  0  0  0  0  0  0  0  0  0
    1.2762   -2.5717    0.0000 O   0  0  0  0  0  0  0  0  0  0  0  0
    0.6337    0.9749    0.0000 O   0  0  0  0  0  0  0  0  0  0  0  0
    0.2212   -1.1196    0.0000 N   0  0  0  0  0  0  0  0  0  0  0  0
   -0.0337   -0.3350    0.0000 C   0  0  0  0  0  0  0  0  0  0  0  0
    1.0462   -1.1196    0.0000 C   0  0  0  0  0  0  0  0  0  0  0  0
    0.6337    0.1499    0.0000 C   0  0  0  0  0  0  0  0  0  0  0  0
   -2.0989   -1.7882    0.0000 C   0  0  0  0  0  0  0  0  0  0  0  0
   -1.4314   -0.6321    0.0000 C   0  0  0  0  0  0  0  0  0  0  0  0
   -2.2704   -2.5951    0.0000 C   0  0  0  0  0  0  0  0  0  0  0  0
    1.5311   -1.7871    0.0000 C   0  0  0  0  0  0  0  0  0  0  0  0
   -0.8183   -0.0801    0.0000 C   0  0  0  0  0  0  0  0  0  0  0  0
   -1.8288   -3.9541    0.0000 C   0  0  0  0  0  0  0  0  0  0  0  0
   -1.6573   -3.1472    0.0000 C   0  0  0  0  0  0  0  0  0  0  0  0
   -1.2157   -4.5062    0.0000 C   0  0  0  0  0  0  0  0  0  0  0  0
   -2.6509   -1.1751    0.0000 C   0  0  0  0  0  0  0  0  0  0  0  0
   -2.2384   -0.4606    0.0000 C   0  0  0  0  0  0  0  0  0  0  0  0
   -3.0550   -2.8501    0.0000 C   0  0  0  0  0  0  0  0  0  0  0  0
   -2.6135   -4.2091    0.0000 C   0  0  0  0  0  0  0  0  0  0  0  0
    2.3561   -1.7871    0.0000 C   0  0  0  0  0  0  0  0  0  0  0  0
   -3.2265   -3.6570    0.0000 C   0  0  0  0  0  0  0  0  0  0  0  0
    1.9436   -3.0566    0.0000 C   0  0  0  0  0  0  0  0  0  0  0  0
    2.6111   -2.5717    0.0000 C   0  0  0  0  0  0  0  0  0  0  0  0
  1 19  1  0
  2 19  1  0
  3 19  1  0
  4 10  1  0
  4 11  1  0
  5 12  1  0
  5 13  1  0
  6 15  1  0
  6 26  1  0
  7 11  2  0
  8  9  1  0
  8 10  2  0
  9 11  1  0
  9 16  2  0
 10 15  1  0
 12 14  1  0
 12 20  2  0
 13 16  1  0
 13 21  2  0
 14 18  2  0
 14 22  1  0
 15 24  2  0
 17 18  1  0
 17 19  1  0
 17 23  2  0
 20 21  1  0
 22 25  2  0
 23 25  1  0
 24 27  1  0
 26 27  2  0
M  END
> <chembl_id>
CHEMBL1366482

> <chembl_pref_name>
None

$$$$
CHEMBL1416382
     RDKit          2D

 23 24  0  0  0  0  0  0  0  0999 V2000
    0.4587   -1.1617    0.0000 Br  0  0  0  0  0  0  0  0  0  0  0  0
   -0.1435   -2.8103    0.0000 Cl  0  0  0  0  0  0  0  0  0  0  0  0
   -1.5724   -5.2853    0.0000 Cl  0  0  0  0  0  0  0  0  0  0  0  0
   -2.4021    0.7888    0.0000 O   0  0  0  0  0  0  0  0  0  0  0  0
   -3.0014   -0.3353    0.0000 O   0  0  0  0  0  0  0  0  0  0  0  0
   -1.2725    1.8368    0.0000 N   0  0  0  0  0  0  0  0  0  0  0  0
   -1.5724   -0.3353    0.0000 C   0  0  0  0  0  0  0  0  0  0  0  0
   -1.6341    0.4874    0.0000 C   0  0  0  0  0  0  0  0  0  0  0  0
   -2.2869   -0.7478    0.0000 C   0  0  0  0  0  0  0  0  0  0  0  0
   -1.0293    1.0485    0.0000 C   0  0  0  0  0  0  0  0  0  0  0  0
   -0.8908   -0.8001    0.0000 C   0  0  0  0  0  0  0  0  0  0  0  0
   -1.5724   -2.8103    0.0000 C   0  0  0  0  0  0  0  0  0  0  0  0
   -0.1024   -0.5569    0.0000 C   0  0  0  0  0  0  0  0  0  0  0  0
   -0.8580   -3.2228    0.0000 C   0  0  0  0  0  0  0  0  0  0  0  0
   -2.2869   -1.5728    0.0000 C   0  0  0  0  0  0  0  0  0  0  0  0
   -0.2135    0.9255    0.0000 C   0  0  0  0  0  0  0  0  0  0  0  0
   -1.5724   -1.9853    0.0000 C   0  0  0  0  0  0  0  0  0  0  0  0
    0.1990    0.2111    0.0000 C   0  0  0  0  0  0  0  0  0  0  0  0
   -2.2869   -3.2228    0.0000 C   0  0  0  0  0  0  0  0  0  0  0  0
   -0.8580   -4.0478    0.0000 C   0  0  0  0  0  0  0  0  0  0  0  0
   -1.5724   -4.4603    0.0000 C   0  0  0  0  0  0  0  0  0  0  0  0
   -2.2869   -4.0478    0.0000 C   0  0  0  0  0  0  0  0  0  0  0  0
   -2.0768    2.0204    0.0000 C   0  0  0  0  0  0  0  0  0  0  0  0
  1 13  1  0
  2 14  1  0
  3 21  1  0
  4  8  1  0
  5  9  2  0
  6 10  2  3
  6 23  1  0
  7  8  2  0
  7  9  1  0
  7 11  1  0
  8 10  1  0
  9 15  1  0
 10 16  1  0
 11 13  2  0
 12 14  1  0
 12 17  1  0
 12 19  2  0
 13 18  1  0
 14 20  2  0
 15 17  2  0
 16 18  2  0
 19 22  1  0
 20 21  1  0
 21 22  2  0
M  END
> <chembl_id>
CHEMBL1416382

> <chembl_pref_name>
None

$$$$
CHEMBL3954549
     RDKit          2D

 21 23  0  0  0  0  0  0  0  0999 V2000
   12.1545  -19.1297    0.0000 N   0  0  0  0  0  0  0  0  0  0  0  0
   12.1545  -19.9469    0.0000 C   0  0  0  0  0  0  0  0  0  0  0  0
   11.4454  -20.3555    0.0000 C   0  0  0  0  0  0  0  0  0  0  0  0
   10.7363  -19.9469    0.0000 N   0  0  0  0  0  0  0  0  0  0  0  0
   10.7363  -19.1297    0.0000 C   0  0  0  0  0  0  0  0  0  0  0  0
   11.4454  -18.7211    0.0000 C   0  0  0  0  0  0  0  0  0  0  0  0
   12.8595  -20.3555    0.0000 C   0  0  0  0  0  0  0  0  0  0  0  0
   13.5685  -19.9469    0.0000 C   0  0  0  0  0  0  0  0  0  0  0  0
   12.8595  -21.1727    0.0000 N   0  0  0  0  0  0  0  0  0  0  0  0
   12.1545  -21.5813    0.0000 N   0  0  0  0  0  0  0  0  0  0  0  0
   12.8595  -23.6243    0.0000 C   0  0  0  0  0  0  0  0  0  0  0  0
   12.1545  -24.0329    0.0000 N   0  0  0  0  0  0  0  0  0  0  0  0
   11.4454  -23.6243    0.0000 C   0  0  0  0  0  0  0  0  0  0  0  0
   11.4454  -22.8071    0.0000 C   0  0  0  0  0  0  0  0  0  0  0  0
   12.1545  -22.3985    0.0000 C   0  0  0  0  0  0  0  0  0  0  0  0
   12.8595  -22.8071    0.0000 N   0  0  0  0  0  0  0  0  0  0  0  0
   10.6682  -22.5565    0.0000 C   0  0  0  0  0  0  0  0  0  0  0  0
   10.1880  -23.2157    0.0000 C   0  0  0  0  0  0  0  0  0  0  0  0
   10.6682  -23.8789    0.0000 S   0  0  0  0  0  0  0  0  0  0  0  0
   10.4135  -21.7793    0.0000 C   0  0  0  0  0  0  0  0  0  0  0  0
    9.3708  -23.2157    0.0000 Cl  0  0  0  0  0  0  0  0  0  0  0  0
  1  2  1  0
  2  3  2  0
  3  4  1  0
  4  5  2  0
  5  6  1  0
  1  6  2  0
  7  8  1  0
  9 10  1  0
 11 12  1  0
 12 13  2  0
 13 14  1  0
 14 15  2  0
 15 16  1  0
 11 16  2  0
 17 18  2  0
 18 19  1  0
 13 19  1  0
 14 17  1  0
 17 20  1  0
 18 21  1  0
 10 15  1  0
  7  9  2  0
  2  7  1  0
M  END
> <chembl_id>
CHEMBL3954549

> <chembl_pref_name>
None

$$$$
CHEMBL2059288
     RDKit          2D

 20 22  0  0  0  0  0  0  0  0999 V2000
    5.1555  -17.3877    0.0000 C   0  0  0  0  0  0  0  0  0  0  0  0
    3.7295  -17.3793    0.0000 C   0  0  0  0  0  0  0  0  0  0  0  0
    4.4445  -16.9680    0.0000 C   0  0  0  0  0  0  0  0  0  0  0  0
    5.8705  -16.9785    0.0000 C   0  0  0  0  0  0  0  0  0  0  0  0
    3.7231  -18.2061    0.0000 C   0  0  0  0  0  0  0  0  0  0  0  0
    5.1555  -18.2061    0.0000 C   0  0  0  0  0  0  0  0  0  0  0  0
    3.0186  -18.6175    0.0000 O   0  0  0  0  0  0  0  0  0  0  0  0
    6.5814  -17.3940    0.0000 C   0  0  0  0  0  0  0  0  0  0  0  0
    5.8642  -18.6260    0.0000 O   0  0  0  0  0  0  0  0  0  0  0  0
    4.4382  -18.6175    0.0000 C   0  0  0  0  0  0  0  0  0  0  0  0
    2.3036  -18.2060    0.0000 C   0  0  0  0  0  0  0  0  0  0  0  0
    3.0186  -16.9616    0.0000 C   0  0  0  0  0  0  0  0  0  0  0  0
    6.5814  -18.2167    0.0000 C   0  0  0  0  0  0  0  0  0  0  0  0
    2.3034  -17.3793    0.0000 C   0  0  0  0  0  0  0  0  0  0  0  0
    5.8705  -16.1410    0.0000 O   0  0  0  0  0  0  0  0  0  0  0  0
    4.4445  -16.1410    0.0000 O   0  0  0  0  0  0  0  0  0  0  0  0
    1.5926  -16.9680    0.0000 O   0  0  0  0  0  0  0  0  0  0  0  0
    1.9427  -18.9512    0.0000 C   0  0  0  0  0  0  0  0  0  0  0  0
    1.4779  -18.2268    0.0000 C   0  0  0  0  0  0  0  0  0  0  0  0
    7.2902  -18.6323    0.0000 C   0  0  0  0  0  0  0  0  0  0  0  0
  2  3  2  0
  3  1  1  0
  4  1  1  0
  5 10  2  0
  6  1  2  0
  7  5  1  0
  8  4  1  0
  9  6  1  0
 10  6  1  0
 11  7  1  0
 12  2  1  0
 13  9  1  0
 14 12  1  0
 15  4  2  0
 16  3  1  0
 14 17  1  1
 18 11  1  0
 19 11  1  0
 20 13  1  0
  2  5  1  0
 13  8  2  0
 14 11  1  0
M  END
> <chembl_id>
CHEMBL2059288

> <chembl_pref_name>
HAMAUDOL

$$$$
CHEMBL3957988
     RDKit          2D

 25 28  0  0  0  0  0  0  0  0999 V2000
   10.3712  -18.7865    0.0000 C   0  0  0  0  0  0  0  0  0  0  0  0
   10.3685  -19.6037    0.0000 C   0  0  0  0  0  0  0  0  0  0  0  0
   11.0783  -20.0110    0.0000 C   0  0  0  0  0  0  0  0  0  0  0  0
   11.7867  -19.6012    0.0000 C   0  0  0  0  0  0  0  0  0  0  0  0
   11.7852  -18.7840    0.0000 C   0  0  0  0  0  0  0  0  0  0  0  0
   11.0754  -18.3766    0.0000 C   0  0  0  0  0  0  0  0  0  0  0  0
    9.6614  -18.3791    0.0000 O   0  0  0  0  0  0  0  0  0  0  0  0
   12.4923  -20.0127    0.0000 O   0  0  0  0  0  0  0  0  0  0  0  0
    9.6642  -20.0135    0.0000 C   0  0  0  0  0  0  0  0  0  0  0  0
    8.9544  -19.6062    0.0000 C   0  0  0  0  0  0  0  0  0  0  0  0
    9.6657  -20.8307    0.0000 N   0  0  0  0  0  0  0  0  0  0  0  0
    8.9573  -21.2405    0.0000 N   0  0  0  0  0  0  0  0  0  0  0  0
    9.6659  -23.2823    0.0000 C   0  0  0  0  0  0  0  0  0  0  0  0
    8.9575  -23.6921    0.0000 N   0  0  0  0  0  0  0  0  0  0  0  0
    8.2518  -23.2848    0.0000 C   0  0  0  0  0  0  0  0  0  0  0  0
    8.2504  -22.4676    0.0000 C   0  0  0  0  0  0  0  0  0  0  0  0
    8.9588  -22.0577    0.0000 C   0  0  0  0  0  0  0  0  0  0  0  0
    9.6644  -22.4651    0.0000 N   0  0  0  0  0  0  0  0  0  0  0  0
    7.4727  -22.2143    0.0000 C   0  0  0  0  0  0  0  0  0  0  0  0
    6.9937  -22.8784    0.0000 C   0  0  0  0  0  0  0  0  0  0  0  0
    7.4751  -23.5367    0.0000 S   0  0  0  0  0  0  0  0  0  0  0  0
    6.1791  -22.7917    0.0000 C   0  0  0  0  0  0  0  0  0  0  0  0
    5.8475  -22.0450    0.0000 C   0  0  0  0  0  0  0  0  0  0  0  0
    6.3265  -21.3850    0.0000 C   0  0  0  0  0  0  0  0  0  0  0  0
    7.1411  -21.4676    0.0000 C   0  0  0  0  0  0  0  0  0  0  0  0
  1  2  1  0
  2  3  2  0
  3  4  1  0
  4  5  2  0
  5  6  1  0
  1  6  2  0
  1  7  1  0
  4  8  1  0
  9 10  1  0
 11 12  1  0
 13 14  1  0
 14 15  2  0
 15 16  1  0
 16 17  2  0
 17 18  1  0
 13 18  2  0
 19 20  1  0
 20 21  1  0
 22 23  1  0
 23 24  2  0
 24 25  1  0
 19 25  2  0
 20 22  2  0
 15 21  1  0
 16 19  1  0
 12 17  1  0
  9 11  2  0
  2  9  1  0
M  END
> <chembl_id>
CHEMBL3957988

> <chembl_pref_name>
None

$$$$
CHEMBL309490
     RDKit          2D

 20 22  0  0  0  0  0  0  0  0999 V2000
    6.3357  -18.8785    0.0000 C   0  0  0  0  0  0  0  0  0  0  0  0
    5.6225  -19.2890    0.0000 C   0  0  0  0  0  0  0  0  0  0  0  0
    4.9093  -18.8785    0.0000 C   0  0  0  0  0  0  0  0  0  0  0  0
    6.3357  -18.0534    0.0000 C   0  0  0  0  0  0  0  0  0  0  0  0
    5.6225  -17.6387    0.0000 O   0  0  0  0  0  0  0  0  0  0  0  0
    4.9093  -18.0534    0.0000 C   0  0  0  0  0  0  0  0  0  0  0  0
    4.1962  -19.2890    0.0000 C   0  0  0  0  0  0  0  0  0  0  0  0
    4.1962  -17.6387    0.0000 C   0  0  0  0  0  0  0  0  0  0  0  0
    3.4830  -18.8785    0.0000 C   0  0  0  0  0  0  0  0  0  0  0  0
    5.6225  -20.1141    0.0000 O   0  0  0  0  0  0  0  0  0  0  0  0
    3.4830  -18.0534    0.0000 C   0  0  0  0  0  0  0  0  0  0  0  0
    7.0488  -17.6387    0.0000 C   0  0  0  0  0  0  0  0  0  0  0  0
    7.0488  -19.2890    0.0000 O   0  0  0  0  0  0  0  0  0  0  0  0
    4.1962  -20.1141    0.0000 O   0  0  0  0  0  0  0  0  0  0  0  0
    2.7698  -17.6387    0.0000 O   0  0  0  0  0  0  0  0  0  0  0  0
    7.0488  -16.8136    0.0000 C   0  0  0  0  0  0  0  0  0  0  0  0
    7.7703  -18.0534    0.0000 C   0  0  0  0  0  0  0  0  0  0  0  0
    8.4793  -17.6387    0.0000 C   0  0  0  0  0  0  0  0  0  0  0  0
    7.7703  -16.4114    0.0000 C   0  0  0  0  0  0  0  0  0  0  0  0
    8.4793  -16.8136    0.0000 C   0  0  0  0  0  0  0  0  0  0  0  0
  2  1  1  0
  3  2  1  0
  4  1  2  0
  5  4  1  0
  6  5  1  0
  7  3  1  0
  8  6  1  0
  9  7  2  0
 10  2  2  0
 11  8  2  0
 12  4  1  0
 13  1  1  0
 14  7  1  0
 15 11  1  0
 16 12  1  0
 17 12  2  0
 18 17  1  0
 19 16  2  0
 20 18  2  0
  3  6  2  0
 19 20  1  0
  9 11  1  0
M  END
> <chembl_id>
CHEMBL309490

> <chembl_pref_name>
GALANGIN

$$$$
CHEMBL4549260
     RDKit          2D

 17 19  0  0  0  0  0  0  0  0999 V2000
   26.8337   -9.1204    0.0000 N   0  0  0  0  0  0  0  0  0  0  0  0
   26.1707   -8.6383    0.0000 N   0  0  0  0  0  0  0  0  0  0  0  0
   25.5120   -9.1204    0.0000 C   0  0  0  0  0  0  0  0  0  0  0  0
   26.5793   -9.8971    0.0000 C   0  0  0  0  0  0  0  0  0  0  0  0
   25.7621   -9.8971    0.0000 N   0  0  0  0  0  0  0  0  0  0  0  0
   25.5096  -10.6743    0.0000 N   0  0  0  0  0  0  0  0  0  0  0  0
   26.1707  -11.1547    0.0000 C   0  0  0  0  0  0  0  0  0  0  0  0
   26.8318  -10.6743    0.0000 S   0  0  0  0  0  0  0  0  0  0  0  0
   26.1708  -11.9719    0.0000 C   0  0  0  0  0  0  0  0  0  0  0  0
   26.8785  -12.3805    0.0000 C   0  0  0  0  0  0  0  0  0  0  0  0
   26.8738  -13.1958    0.0000 C   0  0  0  0  0  0  0  0  0  0  0  0
   27.5807  -13.6043    0.0000 C   0  0  0  0  0  0  0  0  0  0  0  0
   28.2894  -13.1956    0.0000 C   0  0  0  0  0  0  0  0  0  0  0  0
   28.2867  -12.3742    0.0000 C   0  0  0  0  0  0  0  0  0  0  0  0
   27.5792  -11.9694    0.0000 C   0  0  0  0  0  0  0  0  0  0  0  0
   27.5748  -11.1522    0.0000 O   0  0  0  0  0  0  0  0  0  0  0  0
   28.2803  -10.7398    0.0000 C   0  0  0  0  0  0  0  0  0  0  0  0
  4  1  2  0
  1  2  1  0
  2  3  2  0
  3  5  1  0
  4  5  1  0
  5  6  1  0
  6  7  2  0
  7  8  1  0
  8  4  1  0
  7  9  1  0
  9 10  1  0
 10 11  2  0
 11 12  1  0
 12 13  2  0
 13 14  1  0
 14 15  2  0
 15 10  1  0
 15 16  1  0
 16 17  1  0
M  END
> <chembl_id>
CHEMBL4549260

> <chembl_pref_name>
None

$$$$
CHEMBL490942
     RDKit          2D

 22 24  0  0  0  0  0  0  0  0999 V2000
    9.5000  -25.8417    0.0000 C   0  0  0  0  0  0  0  0  0  0  0  0
   10.3250  -25.8417    0.0000 C   0  0  0  0  0  0  0  0  0  0  0  0
   11.1500  -25.8417    0.0000 C   0  0  0  0  0  0  0  0  0  0  0  0
   10.3250  -25.0167    0.0000 C   0  0  0  0  0  0  0  0  0  0  0  0
   10.3250  -26.6667    0.0000 C   0  0  0  0  0  0  0  0  0  0  0  0
   11.5606  -26.5585    0.0000 C   0  0  0  0  0  0  0  0  0  0  0  0
   12.3849  -26.5588    0.0000 C   0  0  0  0  0  0  0  0  0  0  0  0
   12.7982  -25.8438    0.0000 C   0  0  0  0  0  0  0  0  0  0  0  0
   12.3813  -25.1270    0.0000 C   0  0  0  0  0  0  0  0  0  0  0  0
   11.5584  -25.1301    0.0000 C   0  0  0  0  0  0  0  0  0  0  0  0
   11.0418  -24.6060    0.0000 C   0  0  0  0  0  0  0  0  0  0  0  0
   11.0421  -23.7818    0.0000 C   0  0  0  0  0  0  0  0  0  0  0  0
   10.3271  -23.3685    0.0000 C   0  0  0  0  0  0  0  0  0  0  0  0
    9.6103  -23.7854    0.0000 C   0  0  0  0  0  0  0  0  0  0  0  0
    9.6135  -24.6083    0.0000 C   0  0  0  0  0  0  0  0  0  0  0  0
    9.0894  -25.1249    0.0000 C   0  0  0  0  0  0  0  0  0  0  0  0
    8.2651  -25.1245    0.0000 C   0  0  0  0  0  0  0  0  0  0  0  0
    7.8518  -25.8395    0.0000 C   0  0  0  0  0  0  0  0  0  0  0  0
    8.2687  -26.5564    0.0000 C   0  0  0  0  0  0  0  0  0  0  0  0
    9.0916  -26.5532    0.0000 C   0  0  0  0  0  0  0  0  0  0  0  0
    7.0268  -25.8406    0.0000 O   0  0  0  0  0  0  0  0  0  0  0  0
   10.3260  -22.5435    0.0000 O   0  0  0  0  0  0  0  0  0  0  0  0
  4 11  2  0
  3  6  2  0
 11 12  1  0
  1  2  1  0
 12 13  2  0
  6  7  1  0
 13 14  1  0
  2  4  1  0
 14 15  2  0
 15  4  1  0
  7  8  2  0
  1 16  2  0
 16 17  1  0
  8  9  1  0
 17 18  2  0
  2  5  1  0
 18 19  1  0
  9 10  2  0
 19 20  2  0
 20  1  1  0
 10  3  1  0
 18 21  1  0
  2  3  1  0
 13 22  1  0
M  END
> <chembl_id>
CHEMBL490942

> <chembl_pref_name>
None

$$$$
CHEMBL1334412
     RDKit          2D

 18 20  0  0  0  0  0  0  0  0999 V2000
    0.7484   -2.5505    0.0000 O   0  0  0  0  0  0  0  0  0  0  0  0
    1.9630   -1.7977    0.0000 O   0  0  0  0  0  0  0  0  0  0  0  0
   -0.1208   -1.1480    0.0000 N   0  0  0  0  0  0  0  0  0  0  0  0
   -0.1655    0.2802    0.0000 C   0  0  0  0  0  0  0  0  0  0  0  0
    0.6591    0.3060    0.0000 C   0  0  0  0  0  0  0  0  0  0  0  0
    1.0938   -0.3952    0.0000 C   0  0  0  0  0  0  0  0  0  0  0  0
   -0.5554   -0.4468    0.0000 C   0  0  0  0  0  0  0  0  0  0  0  0
    0.7038   -1.1222    0.0000 C   0  0  0  0  0  0  0  0  0  0  0  0
   -0.6001    0.9815    0.0000 C   0  0  0  0  0  0  0  0  0  0  0  0
    1.1918    0.9360    0.0000 C   0  0  0  0  0  0  0  0  0  0  0  0
    1.8950   -0.1986    0.0000 C   0  0  0  0  0  0  0  0  0  0  0  0
   -1.3800   -0.4725    0.0000 C   0  0  0  0  0  0  0  0  0  0  0  0
    1.1384   -1.8235    0.0000 C   0  0  0  0  0  0  0  0  0  0  0  0
   -1.8146    0.2287    0.0000 C   0  0  0  0  0  0  0  0  0  0  0  0
   -1.4247    0.9557    0.0000 C   0  0  0  0  0  0  0  0  0  0  0  0
    1.9555    0.6242    0.0000 C   0  0  0  0  0  0  0  0  0  0  0  0
   -0.2101    1.7085    0.0000 C   0  0  0  0  0  0  0  0  0  0  0  0
   -2.6392    0.2029    0.0000 C   0  0  0  0  0  0  0  0  0  0  0  0
  1 13  2  0
  2 13  1  0
  3  7  1  0
  3  8  1  0
  4  5  1  0
  4  7  1  0
  4  9  2  0
  5  6  1  0
  5 10  1  0
  6  8  1  0
  6 11  1  0
  7 12  2  0
  8 13  1  0
  9 15  1  0
  9 17  1  0
 10 16  2  0
 11 16  1  0
 12 14  1  0
 14 15  2  0
 14 18  1  0
M  END
> <chembl_id>
CHEMBL1334412

> <chembl_pref_name>
None

$$$$
CHEMBL400247
     RDKit          2D

 34 37  0  0  0  0  0  0  0  0999 V2000
   -1.3949  -11.8160    0.0000 C   0  0  0  0  0  0  0  0  0  0  0  0
   -1.3949  -10.9910    0.0000 C   0  0  0  0  0  0  0  0  0  0  0  0
   -0.6868  -10.5766    0.0000 C   0  0  0  0  0  0  0  0  0  0  0  0
   -0.6868  -12.2265    0.0000 C   0  0  0  0  0  0  0  0  0  0  0  0
    0.0295  -11.8160    0.0000 C   0  0  0  0  0  0  0  0  0  0  0  0
    0.7460  -12.2265    0.0000 C   0  0  0  0  0  0  0  0  0  0  0  0
    1.4582  -11.8160    0.0000 C   0  0  0  0  0  0  0  0  0  0  0  0
    1.4582  -10.9910    0.0000 C   0  0  0  0  0  0  0  0  0  0  0  0
    2.1745  -10.5766    0.0000 C   0  0  0  0  0  0  0  0  0  0  0  0
    2.9594  -10.8364    0.0000 C   0  0  0  0  0  0  0  0  0  0  0  0
    3.4417  -10.1661    0.0000 C   0  0  0  0  0  0  0  0  0  0  0  0
    2.9594   -9.4999    0.0000 C   0  0  0  0  0  0  0  0  0  0  0  0
    3.2152   -8.7150    0.0000 C   0  0  0  0  0  0  0  0  0  0  0  0
    4.0102   -8.5009    0.0000 C   0  0  0  0  0  0  0  0  0  0  0  0
    4.2202   -7.7060    0.0000 C   0  0  0  0  0  0  0  0  0  0  0  0
    5.0193   -7.4919    0.0000 C   0  0  0  0  0  0  0  0  0  0  0  0
    5.2376   -6.6968    0.0000 C   0  0  0  0  0  0  0  0  0  0  0  0
    6.0326   -6.4785    0.0000 C   0  0  0  0  0  0  0  0  0  0  0  0
    5.6045   -8.0728    0.0000 C   0  0  0  0  0  0  0  0  0  0  0  0
    5.3904   -8.8678    0.0000 C   0  0  0  0  0  0  0  0  0  0  0  0
    6.3994   -7.8587    0.0000 C   0  0  0  0  0  0  0  0  0  0  0  0
    2.6301   -8.1300    0.0000 C   0  0  0  0  0  0  0  0  0  0  0  0
    2.1745   -9.7516    0.0000 C   0  0  0  0  0  0  0  0  0  0  0  0
    2.1745   -8.9266    0.0000 C   0  0  0  0  0  0  0  0  0  0  0  0
    1.4582   -9.3411    0.0000 C   0  0  0  0  0  0  0  0  0  0  0  0
    0.7459   -9.7516    0.0000 C   0  0  0  0  0  0  0  0  0  0  0  0
    0.7459  -10.5766    0.0000 C   0  0  0  0  0  0  0  0  0  0  0  0
    0.0295  -10.9910    0.0000 C   0  0  0  0  0  0  0  0  0  0  0  0
    0.0295  -10.1661    0.0000 C   0  0  0  0  0  0  0  0  0  0  0  0
    0.7459  -11.4015    0.0000 H   0  0  0  0  0  0  0  0  0  0  0  0
    1.4582  -10.1661    0.0000 H   0  0  0  0  0  0  0  0  0  0  0  0
    2.1745  -11.4015    0.0000 H   0  0  0  0  0  0  0  0  0  0  0  0
    3.7814   -9.4434    0.0000 H   0  0  0  0  0  0  0  0  0  0  0  0
   -2.1113  -12.2265    0.0000 O   0  0  0  0  0  0  0  0  0  0  0  0
  1  2  1  0
  2  3  1  0
  1  4  1  0
  4  5  1  0
  5  6  2  0
  6  7  1  0
  7  8  1  0
  8  9  1  0
  9 10  1  0
 10 11  1  0
 11 12  1  0
 12 13  1  0
 13 14  1  0
 14 15  2  0
 15 16  1  0
 16 17  1  1
 17 18  1  0
 16 19  1  0
 19 20  1  0
 19 21  1  0
 13 22  1  6
 12 23  1  0
  9 23  1  0
 23 24  1  1
 23 25  1  0
 25 26  1  0
 26 27  1  0
  8 27  1  0
 27 28  1  0
  3 28  1  0
  5 28  1  0
 28 29  1  1
 27 30  1  6
  8 31  1  1
  9 32  1  6
 12 33  1  6
  1 34  1  1
M  END
> <chembl_id>
CHEMBL400247

> <chembl_pref_name>
STIGMASTEROL

$$$$
CHEMBL1503034
     RDKit          2D

 20 21  0  0  0  0  0  0  0  0999 V2000
    3.5810    0.3681    0.0000 Cl  0  0  0  0  0  0  0  0  0  0  0  0
    0.1644    1.5626    0.0000 O   0  0  0  0  0  0  0  0  0  0  0  0
    2.1521    2.8431    0.0000 O   0  0  0  0  0  0  0  0  0  0  0  0
   -1.3080    2.0168    0.0000 O   0  0  0  0  0  0  0  0  0  0  0  0
    0.7231    2.8431    0.0000 C   0  0  0  0  0  0  0  0  0  0  0  0
    0.0415    2.3784    0.0000 C   0  0  0  0  0  0  0  0  0  0  0  0
    1.4376    2.4306    0.0000 C   0  0  0  0  0  0  0  0  0  0  0  0
   -0.7469    2.6216    0.0000 C   0  0  0  0  0  0  0  0  0  0  0  0
    2.1521    0.3681    0.0000 C   0  0  0  0  0  0  0  0  0  0  0  0
    0.7848    3.6658    0.0000 C   0  0  0  0  0  0  0  0  0  0  0  0
    1.4376    1.6056    0.0000 C   0  0  0  0  0  0  0  0  0  0  0  0
    2.8665   -0.0444    0.0000 C   0  0  0  0  0  0  0  0  0  0  0  0
    2.1521    1.1931    0.0000 C   0  0  0  0  0  0  0  0  0  0  0  0
   -1.0483    3.3895    0.0000 C   0  0  0  0  0  0  0  0  0  0  0  0
    0.1800    4.2270    0.0000 C   0  0  0  0  0  0  0  0  0  0  0  0
    1.4376   -0.0444    0.0000 C   0  0  0  0  0  0  0  0  0  0  0  0
   -0.6358    4.1040    0.0000 C   0  0  0  0  0  0  0  0  0  0  0  0
    2.8665   -0.8694    0.0000 C   0  0  0  0  0  0  0  0  0  0  0  0
    1.4376   -0.8694    0.0000 C   0  0  0  0  0  0  0  0  0  0  0  0
    2.1521   -1.2819    0.0000 C   0  0  0  0  0  0  0  0  0  0  0  0
  1 12  1  0
  2  6  1  0
  3  7  2  0
  4  8  2  0
  5  6  2  0
  5  7  1  0
  5 10  1  0
  6  8  1  0
  7 11  1  0
  8 14  1  0
  9 12  1  0
  9 13  1  0
  9 16  2  0
 10 15  2  0
 11 13  2  0
 12 18  2  0
 14 17  2  0
 15 17  1  0
 16 19  1  0
 18 20  1  0
 19 20  2  0
M  END
> <chembl_id>
CHEMBL1503034

> <chembl_pref_name>
None

$$$$
CHEMBL5173495
     RDKit          2D

 40 44  0  0  0  0  0  0  0  0999 V2000
   -3.9269   -0.2071    0.0000 C   0  0  0  0  0  0  0  0  0  0  0  0
   -3.2123    0.2051    0.0000 C   0  0  0  0  0  0  0  0  0  0  0  0
   -2.5004   -0.2067    0.0000 C   0  0  0  0  0  0  0  0  0  0  0  0
   -2.5004   -1.0319    0.0000 C   0  0  0  0  0  0  0  0  0  0  0  0
   -3.2105   -1.4437    0.0000 C   0  0  0  0  0  0  0  0  0  0  0  0
   -3.9269   -1.0356    0.0000 C   0  0  0  0  0  0  0  0  0  0  0  0
   -1.7877    0.2040    0.0000 C   0  0  0  0  0  0  0  0  0  0  0  0
   -1.0728   -0.2083    0.0000 C   0  0  0  0  0  0  0  0  0  0  0  0
   -1.0710   -1.0294    0.0000 C   0  0  0  0  0  0  0  0  0  0  0  0
   -1.7826   -1.4460    0.0000 N   0  0  0  0  0  0  0  0  0  0  0  0
   -0.3563   -1.4420    0.0000 C   0  0  0  0  0  0  0  0  0  0  0  0
    0.3584   -1.0295    0.0000 C   0  0  0  0  0  0  0  0  0  0  0  0
    1.0705   -1.4416    0.0000 C   0  0  0  0  0  0  0  0  0  0  0  0
    1.0705   -2.2670    0.0000 C   0  0  0  0  0  0  0  0  0  0  0  0
    0.3601   -2.6789    0.0000 C   0  0  0  0  0  0  0  0  0  0  0  0
   -0.3563   -2.2707    0.0000 C   0  0  0  0  0  0  0  0  0  0  0  0
   -1.7877    1.0293    0.0000 O   0  0  0  0  0  0  0  0  0  0  0  0
    1.7851   -2.6796    0.0000 O   0  0  0  0  0  0  0  0  0  0  0  0
    2.4997   -2.2670    0.0000 C   0  0  0  0  0  0  0  0  0  0  0  0
    3.2144   -2.6796    0.0000 C   0  0  0  0  0  0  0  0  0  0  0  0
    3.9290   -2.2670    0.0000 C   0  0  0  0  0  0  0  0  0  0  0  0
   -1.0731    1.4418    0.0000 C   0  0  0  0  0  0  0  0  0  0  0  0
   -0.3584    1.0293    0.0000 C   0  0  0  0  0  0  0  0  0  0  0  0
    0.3561    1.4418    0.0000 N   0  0  0  0  0  0  0  0  0  0  0  0
   -3.2123    1.0302    0.0000 O   0  0  0  0  0  0  0  0  0  0  0  0
   -3.9269    1.4429    0.0000 C   0  0  0  0  0  0  0  0  0  0  0  0
   -4.6415   -1.4482    0.0000 O   0  0  0  0  0  0  0  0  0  0  0  0
   -4.6415   -2.2734    0.0000 C   0  0  0  0  0  0  0  0  0  0  0  0
    0.3561    2.2670    0.0000 C   0  0  0  0  0  0  0  0  0  0  0  0
    1.0707    2.6796    0.0000 C   0  0  0  0  0  0  0  0  0  0  0  0
    1.7853    2.2670    0.0000 N   0  0  0  0  0  0  0  0  0  0  0  0
    1.7854    1.4418    0.0000 C   0  0  0  0  0  0  0  0  0  0  0  0
    1.0707    1.0293    0.0000 C   0  0  0  0  0  0  0  0  0  0  0  0
    2.5000    2.6796    0.0000 C   0  0  0  0  0  0  0  0  0  0  0  0
    3.2147    2.2670    0.0000 C   0  0  0  0  0  0  0  0  0  0  0  0
    3.9295    2.6794    0.0000 C   0  0  0  0  0  0  0  0  0  0  0  0
    4.6415    2.2674    0.0000 C   0  0  0  0  0  0  0  0  0  0  0  0
    4.6415    1.4420    0.0000 C   0  0  0  0  0  0  0  0  0  0  0  0
    3.9313    1.0300    0.0000 C   0  0  0  0  0  0  0  0  0  0  0  0
    3.2147    1.4383    0.0000 C   0  0  0  0  0  0  0  0  0  0  0  0
  2  1  2  0
  3  2  1  0
  4  3  2  0
  5  4  1  0
  1  6  1  0
  6  5  2  0
  3  7  1  0
  8  7  2  0
  9  8  1  0
 10  9  2  0
  4 10  1  0
 11  9  1  0
 12 11  2  0
 13 12  1  0
 14 13  2  0
 15 14  1  0
 11 16  1  0
 16 15  2  0
  7 17  1  0
 14 18  1  0
 18 19  1  0
 19 20  1  0
 20 21  1  0
 17 22  1  0
 22 23  1  0
 23 24  1  0
  2 25  1  0
 25 26  1  0
  6 27  1  0
 27 28  1  0
 29 24  1  0
 30 29  1  0
 31 30  1  0
 32 31  1  0
 33 32  1  0
 24 33  1  0
 31 34  1  0
 34 35  1  0
 36 35  2  0
 37 36  1  0
 38 37  2  0
 39 38  1  0
 40 39  2  0
 35 40  1  0
M  END
> <chembl_id>
CHEMBL5173495

> <chembl_pref_name>
None

$$$$
CHEMBL1537336
     RDKit          2D

 31 34  0  0  0  0  0  0  0  0999 V2000
   -2.5717    0.3155    0.0000 O   0  0  0  0  0  0  0  0  0  0  0  0
   -2.7593   -1.4695    0.0000 O   0  0  0  0  0  0  0  0  0  0  0  0
   -1.0460    2.1407    0.0000 O   0  0  0  0  0  0  0  0  0  0  0  0
    0.0044    0.7749    0.0000 O   0  0  0  0  0  0  0  0  0  0  0  0
    1.5730   -2.4593    0.0000 O   0  0  0  0  0  0  0  0  0  0  0  0
   -1.2911   -1.3926    0.0000 N   0  0  0  0  0  0  0  0  0  0  0  0
   -0.7391   -0.7795    0.0000 C   0  0  0  0  0  0  0  0  0  0  0  0
   -1.1516   -0.0650    0.0000 C   0  0  0  0  0  0  0  0  0  0  0  0
   -1.9586   -0.2366    0.0000 C   0  0  0  0  0  0  0  0  0  0  0  0
   -2.0448   -1.0570    0.0000 C   0  0  0  0  0  0  0  0  0  0  0  0
   -0.8160    0.6886    0.0000 C   0  0  0  0  0  0  0  0  0  0  0  0
    0.0814   -0.8657    0.0000 C   0  0  0  0  0  0  0  0  0  0  0  0
   -1.3010    1.3561    0.0000 C   0  0  0  0  0  0  0  0  0  0  0  0
   -1.1196   -2.1996    0.0000 C   0  0  0  0  0  0  0  0  0  0  0  0
    0.4169   -1.6194    0.0000 C   0  0  0  0  0  0  0  0  0  0  0  0
    0.5663   -0.1983    0.0000 C   0  0  0  0  0  0  0  0  0  0  0  0
   -1.7327   -2.7516    0.0000 C   0  0  0  0  0  0  0  0  0  0  0  0
    1.2374   -1.7057    0.0000 C   0  0  0  0  0  0  0  0  0  0  0  0
   -2.1260    1.3561    0.0000 C   0  0  0  0  0  0  0  0  0  0  0  0
   -1.7135    2.6256    0.0000 C   0  0  0  0  0  0  0  0  0  0  0  0
    1.3868   -0.2845    0.0000 C   0  0  0  0  0  0  0  0  0  0  0  0
   -2.3809    2.1407    0.0000 C   0  0  0  0  0  0  0  0  0  0  0  0
    1.7223   -1.0382    0.0000 C   0  0  0  0  0  0  0  0  0  0  0  0
   -1.5612   -3.5586    0.0000 C   0  0  0  0  0  0  0  0  0  0  0  0
   -2.5173   -2.4967    0.0000 C   0  0  0  0  0  0  0  0  0  0  0  0
   -1.7135    3.4506    0.0000 C   0  0  0  0  0  0  0  0  0  0  0  0
   -2.1743   -4.1106    0.0000 C   0  0  0  0  0  0  0  0  0  0  0  0
   -3.1304   -3.0487    0.0000 C   0  0  0  0  0  0  0  0  0  0  0  0
   -2.9589   -3.8557    0.0000 C   0  0  0  0  0  0  0  0  0  0  0  0
    1.0881   -3.1268    0.0000 C   0  0  0  0  0  0  0  0  0  0  0  0
    1.4236   -3.8804    0.0000 C   0  0  0  0  0  0  0  0  0  0  0  0
  1  9  1  0
  2 10  2  0
  3 13  1  0
  3 20  1  0
  4 11  2  0
  5 18  1  0
  5 30  1  0
  6  7  1  0
  6 10  1  0
  6 14  1  0
  7  8  1  0
  7 12  1  0
  8  9  2  0
  8 11  1  0
  9 10  1  0
 11 13  1  0
 12 15  2  0
 12 16  1  0
 13 19  2  0
 14 17  1  0
 15 18  1  0
 16 21  2  0
 17 24  2  0
 17 25  1  0
 18 23  2  0
 19 22  1  0
 20 22  2  0
 20 26  1  0
 21 23  1  0
 24 27  1  0
 25 28  2  0
 27 29  2  0
 28 29  1  0
 30 31  1  0
M  END
> <chembl_id>
CHEMBL1537336

> <chembl_pref_name>
None

$$$$
CHEMBL1301164
     RDKit          2D

 25 26  0  0  0  0  0  0  0  0999 V2000
    0.8869   -1.0454    0.0000 Br  0  0  0  0  0  0  0  0  0  0  0  0
   -1.9739    0.9050    0.0000 O   0  0  0  0  0  0  0  0  0  0  0  0
   -2.5732   -0.2191    0.0000 O   0  0  0  0  0  0  0  0  0  0  0  0
   -1.1442   -2.6941    0.0000 O   0  0  0  0  0  0  0  0  0  0  0  0
   -4.0021   -4.3441    0.0000 O   0  0  0  0  0  0  0  0  0  0  0  0
   -0.8443    1.9531    0.0000 N   0  0  0  0  0  0  0  0  0  0  0  0
   -1.1442   -0.2191    0.0000 C   0  0  0  0  0  0  0  0  0  0  0  0
   -1.2059    0.6036    0.0000 C   0  0  0  0  0  0  0  0  0  0  0  0
   -1.8587   -0.6316    0.0000 C   0  0  0  0  0  0  0  0  0  0  0  0
   -0.6011    1.1647    0.0000 C   0  0  0  0  0  0  0  0  0  0  0  0
   -2.5732   -2.6941    0.0000 C   0  0  0  0  0  0  0  0  0  0  0  0
   -0.4626   -0.6838    0.0000 C   0  0  0  0  0  0  0  0  0  0  0  0
   -1.8587   -3.1066    0.0000 C   0  0  0  0  0  0  0  0  0  0  0  0
    0.3258   -0.4407    0.0000 C   0  0  0  0  0  0  0  0  0  0  0  0
   -1.8587   -1.4566    0.0000 C   0  0  0  0  0  0  0  0  0  0  0  0
   -2.5732   -1.8691    0.0000 C   0  0  0  0  0  0  0  0  0  0  0  0
   -3.2877   -3.1066    0.0000 C   0  0  0  0  0  0  0  0  0  0  0  0
    0.2147    1.0418    0.0000 C   0  0  0  0  0  0  0  0  0  0  0  0
   -3.2877   -3.9316    0.0000 C   0  0  0  0  0  0  0  0  0  0  0  0
    0.6272    0.3273    0.0000 C   0  0  0  0  0  0  0  0  0  0  0  0
   -1.8587   -3.9316    0.0000 C   0  0  0  0  0  0  0  0  0  0  0  0
   -2.5732   -4.3441    0.0000 C   0  0  0  0  0  0  0  0  0  0  0  0
   -0.2832    2.5579    0.0000 C   0  0  0  0  0  0  0  0  0  0  0  0
   -0.4298   -3.1066    0.0000 C   0  0  0  0  0  0  0  0  0  0  0  0
   -4.0021   -5.1691    0.0000 C   0  0  0  0  0  0  0  0  0  0  0  0
  1 14  1  0
  2  8  2  0
  3  9  2  0
  4 13  1  0
  4 24  1  0
  5 19  1  0
  5 25  1  0
  6 10  1  0
  6 23  1  0
  7  8  1  0
  7  9  1  0
  7 12  2  0
  8 10  1  0
  9 15  1  0
 10 18  2  0
 11 13  1  0
 11 16  1  0
 11 17  2  0
 12 14  1  0
 13 21  2  0
 14 20  2  0
 15 16  2  0
 17 19  1  0
 18 20  1  0
 19 22  2  0
 21 22  1  0
M  END
> <chembl_id>
CHEMBL1301164

> <chembl_pref_name>
None

$$$$
CHEMBL405761
     RDKit          2D

 21 23  0  0  0  0  0  0  0  0999 V2000
    3.5789   -0.1266    0.0000 N   0  0  0  0  0  0  0  0  0  0  0  0
    3.5757   -0.9557    0.0000 C   0  0  0  0  0  0  0  0  0  0  0  0
    4.2944   -1.3668    0.0000 N   0  0  0  0  0  0  0  0  0  0  0  0
    5.0122   -0.9571    0.0000 C   0  0  0  0  0  0  0  0  0  0  0  0
    5.0112   -0.1279    0.0000 C   0  0  0  0  0  0  0  0  0  0  0  0
    4.2925    0.2915    0.0000 C   0  0  0  0  0  0  0  0  0  0  0  0
    5.7958    0.1292    0.0000 N   0  0  0  0  0  0  0  0  0  0  0  0
    6.2792   -0.5292    0.0000 C   0  0  0  0  0  0  0  0  0  0  0  0
    5.7958   -1.2083    0.0000 N   0  0  0  0  0  0  0  0  0  0  0  0
    2.8612   -1.3683    0.0000 N   0  0  0  0  0  0  0  0  0  0  0  0
    4.2918    1.1165    0.0000 O   0  0  0  0  0  0  0  0  0  0  0  0
    2.1467   -0.9559    0.0000 C   0  0  0  0  0  0  0  0  0  0  0  0
    2.1503   -0.1316    0.0000 C   0  0  0  0  0  0  0  0  0  0  0  0
    1.4366    0.2808    0.0000 C   0  0  0  0  0  0  0  0  0  0  0  0
    0.7212   -0.1318    0.0000 C   0  0  0  0  0  0  0  0  0  0  0  0
    0.7240   -0.9611    0.0000 C   0  0  0  0  0  0  0  0  0  0  0  0
    1.4382   -1.3697    0.0000 C   0  0  0  0  0  0  0  0  0  0  0  0
    1.4370    1.1058    0.0000 C   0  0  0  0  0  0  0  0  0  0  0  0
    1.4292    1.9333    0.0000 F   0  0  0  0  0  0  0  0  0  0  0  0
    2.2620    1.1095    0.0000 F   0  0  0  0  0  0  0  0  0  0  0  0
    0.6120    1.0995    0.0000 F   0  0  0  0  0  0  0  0  0  0  0  0
  2 10  1  0
  3  4  1  0
  6 11  2  0
  4  5  2  0
 10 12  1  0
  5  6  1  0
 12 13  2  0
 13 14  1  0
  5  7  1  0
 14 15  2  0
  1  6  1  0
 15 16  1  0
  7  8  2  0
 16 17  2  0
 17 12  1  0
  1  2  1  0
 14 18  1  0
  4  9  1  0
 18 19  1  0
  9  8  1  0
 18 20  1  0
  2  3  2  0
 18 21  1  0
M  END
> <chembl_id>
CHEMBL405761

> <chembl_pref_name>
None

$$$$
CHEMBL481309
     RDKit          2D

 30 33  0  0  0  0  0  0  0  0999 V2000
   -4.2099  -17.7381    0.0000 C   0  0  0  0  0  0  0  0  0  0  0  0
   -4.2112  -18.5631    0.0000 C   0  0  0  0  0  0  0  0  0  0  0  0
   -3.5004  -18.9748    0.0000 C   0  0  0  0  0  0  0  0  0  0  0  0
   -3.5023  -17.3265    0.0000 C   0  0  0  0  0  0  0  0  0  0  0  0
   -2.7864  -17.7340    0.0000 C   0  0  0  0  0  0  0  0  0  0  0  0
   -2.7827  -18.5652    0.0000 C   0  0  0  0  0  0  0  0  0  0  0  0
   -2.0651  -18.9752    0.0000 O   0  0  0  0  0  0  0  0  0  0  0  0
   -2.0725  -17.3130    0.0000 C   0  0  0  0  0  0  0  0  0  0  0  0
   -1.3503  -17.7277    0.0000 C   0  0  0  0  0  0  0  0  0  0  0  0
   -1.3504  -18.5586    0.0000 C   0  0  0  0  0  0  0  0  0  0  0  0
   -0.6321  -18.9723    0.0000 C   0  0  0  0  0  0  0  0  0  0  0  0
    0.0870  -18.5564    0.0000 C   0  0  0  0  0  0  0  0  0  0  0  0
   -4.9226  -17.3274    0.0000 O   0  0  0  0  0  0  0  0  0  0  0  0
   -4.9232  -16.5049    0.0000 C   0  0  0  0  0  0  0  0  0  0  0  0
   -4.9240  -18.9733    0.0000 O   0  0  0  0  0  0  0  0  0  0  0  0
   -3.5063  -16.5040    0.0000 C   0  0  0  0  0  0  0  0  0  0  0  0
   -4.2204  -16.0961    0.0000 C   0  0  0  0  0  0  0  0  0  0  0  0
   -4.2242  -15.2736    0.0000 C   0  0  0  0  0  0  0  0  0  0  0  0
   -4.9385  -14.8658    0.0000 C   0  0  0  0  0  0  0  0  0  0  0  0
   -3.5139  -14.8591    0.0000 C   0  0  0  0  0  0  0  0  0  0  0  0
   -2.0772  -16.4905    0.0000 O   0  0  0  0  0  0  0  0  0  0  0  0
   -0.6359  -17.3123    0.0000 C   0  0  0  0  0  0  0  0  0  0  0  0
    0.0827  -17.7178    0.0000 C   0  0  0  0  0  0  0  0  0  0  0  0
    0.7894  -17.3005    0.0000 C   0  0  0  0  0  0  0  0  0  0  0  0
    0.7834  -16.4760    0.0000 C   0  0  0  0  0  0  0  0  0  0  0  0
    0.0648  -16.0704    0.0000 C   0  0  0  0  0  0  0  0  0  0  0  0
   -0.6480  -16.4895    0.0000 O   0  0  0  0  0  0  0  0  0  0  0  0
    0.7723  -15.6545    0.0000 C   0  0  0  0  0  0  0  0  0  0  0  0
   -0.3518  -15.3575    0.0000 C   0  0  0  0  0  0  0  0  0  0  0  0
    0.8004  -18.9654    0.0000 O   0  0  0  0  0  0  0  0  0  0  0  0
  3  6  2  0
 13 14  1  0
  1  2  2  0
  2 15  1  0
  5  8  1  0
  4 16  1  0
  6  7  1  0
 16 17  1  0
  7 10  1  0
 17 18  2  0
  9  8  1  0
 18 19  1  0
  5  4  2  0
 18 20  1  0
  4  1  1  0
  8 21  2  0
 22 23  2  0
  9 10  2  0
  5  6  1  0
 10 11  1  0
 11 12  2  0
 12 23  1  0
 22 27  1  0
 23 24  1  0
 24 25  1  0
 25 26  1  0
 26 27  1  0
 22  9  1  0
 26 28  1  0
  2  3  1  0
 26 29  1  0
  1 13  1  0
 12 30  1  0
M  END
> <chembl_id>
CHEMBL481309

> <chembl_pref_name>
None

$$$$
CHEMBL1373132
     RDKit          2D

 30 33  0  0  0  0  0  0  0  0999 V2000
   -0.7249    3.6831    0.0000 Cl  0  0  0  0  0  0  0  0  0  0  0  0
    0.2699   -1.4577    0.0000 S   0  0  0  0  0  0  0  0  0  0  0  0
    0.0399   -2.9098    0.0000 S   0  0  0  0  0  0  0  0  0  0  0  0
   -1.2700    0.6618    0.0000 O   0  0  0  0  0  0  0  0  0  0  0  0
   -1.6671   -0.5603    0.0000 O   0  0  0  0  0  0  0  0  0  0  0  0
   -2.1621   -4.4810    0.0000 O   0  0  0  0  0  0  0  0  0  0  0  0
   -3.0020   -3.3250    0.0000 O   0  0  0  0  0  0  0  0  0  0  0  0
    0.0399    1.3292    0.0000 N   0  0  0  0  0  0  0  0  0  0  0  0
   -0.9997   -1.8702    0.0000 N   0  0  0  0  0  0  0  0  0  0  0  0
    0.0399   -0.0057    0.0000 C   0  0  0  0  0  0  0  0  0  0  0  0
    0.8245    0.2493    0.0000 C   0  0  0  0  0  0  0  0  0  0  0  0
   -0.2150   -0.7903    0.0000 C   0  0  0  0  0  0  0  0  0  0  0  0
   -0.4450    0.6618    0.0000 C   0  0  0  0  0  0  0  0  0  0  0  0
    0.8245    1.0743    0.0000 C   0  0  0  0  0  0  0  0  0  0  0  0
   -0.9997   -1.0452    0.0000 C   0  0  0  0  0  0  0  0  0  0  0  0
   -0.2150   -2.1252    0.0000 C   0  0  0  0  0  0  0  0  0  0  0  0
    1.5390   -0.1632    0.0000 C   0  0  0  0  0  0  0  0  0  0  0  0
   -0.2150    2.1138    0.0000 C   0  0  0  0  0  0  0  0  0  0  0  0
    1.5390    1.4868    0.0000 C   0  0  0  0  0  0  0  0  0  0  0  0
    0.3370    2.7269    0.0000 C   0  0  0  0  0  0  0  0  0  0  0  0
    2.2535    0.2493    0.0000 C   0  0  0  0  0  0  0  0  0  0  0  0
   -1.6671   -2.3552    0.0000 C   0  0  0  0  0  0  0  0  0  0  0  0
    2.2535    1.0743    0.0000 C   0  0  0  0  0  0  0  0  0  0  0  0
    0.0821    3.5115    0.0000 C   0  0  0  0  0  0  0  0  0  0  0  0
    1.1440    2.5554    0.0000 C   0  0  0  0  0  0  0  0  0  0  0  0
   -1.5809   -3.1756    0.0000 C   0  0  0  0  0  0  0  0  0  0  0  0
    0.6341    4.1246    0.0000 C   0  0  0  0  0  0  0  0  0  0  0  0
    1.6960    3.1685    0.0000 C   0  0  0  0  0  0  0  0  0  0  0  0
   -2.2483   -3.6606    0.0000 C   0  0  0  0  0  0  0  0  0  0  0  0
    1.4411    3.9531    0.0000 C   0  0  0  0  0  0  0  0  0  0  0  0
  1 24  1  0
  2 12  1  0
  2 16  1  0
  3 16  2  0
  4 13  2  0
  5 15  2  0
  6 29  2  0
  7 29  1  0
  8 13  1  0
  8 14  1  0
  8 18  1  0
  9 15  1  0
  9 16  1  0
  9 22  1  0
 10 11  1  0
 10 12  2  0
 10 13  1  0
 11 14  2  0
 11 17  1  0
 12 15  1  0
 14 19  1  0
 17 21  2  0
 18 20  1  0
 19 23  2  0
 20 24  1  0
 20 25  2  0
 21 23  1  0
 22 26  1  0
 24 27  2  0
 25 28  1  0
 26 29  1  0
 27 30  1  0
 28 30  2  0
M  END
> <chembl_id>
CHEMBL1373132

> <chembl_pref_name>
None

$$$$
CHEMBL1254603
     RDKit          2D

 33 36  0  0  0  0  0  0  0  0999 V2000
   -1.7317  -14.3782    0.0000 C   0  0  0  0  0  0  0  0  0  0  0  0
   -2.5814  -14.4001    0.0000 C   0  0  0  0  0  0  0  0  0  0  0  0
   -3.0579  -15.0487    0.0000 C   0  0  0  0  0  0  0  0  0  0  0  0
   -1.2104  -15.0246    0.0000 C   0  0  0  0  0  0  0  0  0  0  0  0
   -1.3990  -15.8230    0.0000 C   0  0  0  0  0  0  0  0  0  0  0  0
   -2.1740  -16.1888    0.0000 C   0  0  0  0  0  0  0  0  0  0  0  0
   -2.8813  -15.8391    0.0000 C   0  0  0  0  0  0  0  0  0  0  0  0
   -2.9634  -13.6690    0.0000 O   0  0  0  0  0  0  0  0  0  0  0  0
   -1.3858  -13.6293    0.0000 O   0  0  0  0  0  0  0  0  0  0  0  0
   -0.3854  -15.0233    0.0000 C   0  0  0  0  0  0  0  0  0  0  0  0
    0.0282  -15.7372    0.0000 N   0  0  0  0  0  0  0  0  0  0  0  0
   -3.8814  -15.0844    0.0000 C   0  0  0  0  0  0  0  0  0  0  0  0
   -4.3252  -14.3889    0.0000 N   0  0  0  0  0  0  0  0  0  0  0  0
   -2.1814  -17.0136    0.0000 C   0  0  0  0  0  0  0  0  0  0  0  0
   -2.8995  -17.4197    0.0000 N   0  0  0  0  0  0  0  0  0  0  0  0
   -0.3864  -16.4526    0.0000 C   0  0  0  0  0  0  0  0  0  0  0  0
    0.0235  -17.1642    0.0000 C   0  0  0  0  0  0  0  0  0  0  0  0
    0.8489  -17.1672    0.0000 C   0  0  0  0  0  0  0  0  0  0  0  0
    1.2625  -16.4523    0.0000 C   0  0  0  0  0  0  0  0  0  0  0  0
    0.8508  -15.7344    0.0000 C   0  0  0  0  0  0  0  0  0  0  0  0
   -3.9448  -13.6538    0.0000 C   0  0  0  0  0  0  0  0  0  0  0  0
   -4.3850  -12.9603    0.0000 C   0  0  0  0  0  0  0  0  0  0  0  0
   -5.2096  -12.9926    0.0000 C   0  0  0  0  0  0  0  0  0  0  0  0
   -5.5921  -13.7246    0.0000 C   0  0  0  0  0  0  0  0  0  0  0  0
   -5.1501  -14.4242    0.0000 C   0  0  0  0  0  0  0  0  0  0  0  0
   -3.6096  -16.9970    0.0000 C   0  0  0  0  0  0  0  0  0  0  0  0
   -4.3256  -17.3996    0.0000 C   0  0  0  0  0  0  0  0  0  0  0  0
   -4.3372  -18.2248    0.0000 C   0  0  0  0  0  0  0  0  0  0  0  0
   -3.6268  -18.6459    0.0000 C   0  0  0  0  0  0  0  0  0  0  0  0
   -2.9046  -18.2418    0.0000 C   0  0  0  0  0  0  0  0  0  0  0  0
    1.2597  -17.8826    0.0000 C   0  0  0  0  0  0  0  0  0  0  0  0
   -5.0569  -18.6281    0.0000 C   0  0  0  0  0  0  0  0  0  0  0  0
   -5.6506  -12.2955    0.0000 C   0  0  0  0  0  0  0  0  0  0  0  0
  2  8  2  0
  1  2  1  0
  1  9  1  0
  2  3  1  0
 11 20  1  0
 16 17  1  0
 17 18  1  0
 18 19  1  0
 19 20  1  0
 13 21  1  0
  4 10  1  0
  1  4  2  0
 10 11  1  0
  5  6  2  0
  3 12  1  0
 13 25  1  0
 21 22  1  0
 22 23  1  0
 23 24  1  0
 24 25  1  0
 15 26  1  0
  6  7  1  0
 12 13  1  0
  7  3  2  0
  6 14  1  0
  4  5  1  0
 15 30  1  0
 26 27  1  0
 27 28  1  0
 28 29  1  0
 29 30  1  0
 14 15  1  0
 18 31  1  0
 11 16  1  0
 28 32  1  0
 23 33  1  0
M  END
> <chembl_id>
CHEMBL1254603

> <chembl_pref_name>
None

$$$$
CHEMBL1561333
     RDKit          2D

 37 41  0  0  0  0  0  0  0  0999 V2000
    1.3781    2.8897    0.0000 O   0  0  0  0  0  0  0  0  0  0  0  0
   -0.3775    3.2629    0.0000 O   0  0  0  0  0  0  0  0  0  0  0  0
   -1.6105    0.9548    0.0000 O   0  0  0  0  0  0  0  0  0  0  0  0
   -1.5050    3.1606    0.0000 O   0  0  0  0  0  0  0  0  0  0  0  0
    2.4589    0.1127    0.0000 O   0  0  0  0  0  0  0  0  0  0  0  0
    0.9807   -1.5363    0.0000 O   0  0  0  0  0  0  0  0  0  0  0  0
   -0.5886   -2.0462    0.0000 O   0  0  0  0  0  0  0  0  0  0  0  0
    0.8512    1.5172    0.0000 N   0  0  0  0  0  0  0  0  0  0  0  0
    1.6519    0.2842    0.0000 N   0  0  0  0  0  0  0  0  0  0  0  0
    0.0975    1.1817    0.0000 C   0  0  0  0  0  0  0  0  0  0  0  0
   -0.4545    1.7948    0.0000 C   0  0  0  0  0  0  0  0  0  0  0  0
    0.7650    2.3377    0.0000 C   0  0  0  0  0  0  0  0  0  0  0  0
   -0.0420    2.5092    0.0000 C   0  0  0  0  0  0  0  0  0  0  0  0
   -0.0740    0.3747    0.0000 C   0  0  0  0  0  0  0  0  0  0  0  0
    1.5657    1.1047    0.0000 C   0  0  0  0  0  0  0  0  0  0  0  0
   -1.2750    1.7085    0.0000 C   0  0  0  0  0  0  0  0  0  0  0  0
   -1.7599    2.3760    0.0000 C   0  0  0  0  0  0  0  0  0  0  0  0
    0.5391   -0.1773    0.0000 C   0  0  0  0  0  0  0  0  0  0  0  0
   -0.8586    0.1198    0.0000 C   0  0  0  0  0  0  0  0  0  0  0  0
    2.3194    1.4403    0.0000 C   0  0  0  0  0  0  0  0  0  0  0  0
    0.3676   -0.9843    0.0000 C   0  0  0  0  0  0  0  0  0  0  0  0
   -0.4170   -1.2392    0.0000 C   0  0  0  0  0  0  0  0  0  0  0  0
    2.8714    0.8272    0.0000 C   0  0  0  0  0  0  0  0  0  0  0  0
   -1.0301   -0.6872    0.0000 C   0  0  0  0  0  0  0  0  0  0  0  0
   -2.5849    2.3760    0.0000 C   0  0  0  0  0  0  0  0  0  0  0  0
   -2.1724    3.6455    0.0000 C   0  0  0  0  0  0  0  0  0  0  0  0
   -2.8398    3.1606    0.0000 C   0  0  0  0  0  0  0  0  0  0  0  0
    3.6919    0.9134    0.0000 C   0  0  0  0  0  0  0  0  0  0  0  0
    0.0245   -2.5983    0.0000 C   0  0  0  0  0  0  0  0  0  0  0  0
   -2.1724    4.4705    0.0000 C   0  0  0  0  0  0  0  0  0  0  0  0
    0.8092   -2.3433    0.0000 C   0  0  0  0  0  0  0  0  0  0  0  0
   -0.1470   -3.4052    0.0000 C   0  0  0  0  0  0  0  0  0  0  0  0
    0.4661   -3.9573    0.0000 C   0  0  0  0  0  0  0  0  0  0  0  0
   -0.9316   -3.6602    0.0000 C   0  0  0  0  0  0  0  0  0  0  0  0
    0.2946   -4.7642    0.0000 C   0  0  0  0  0  0  0  0  0  0  0  0
   -1.1031   -4.4671    0.0000 C   0  0  0  0  0  0  0  0  0  0  0  0
   -0.4901   -5.0192    0.0000 C   0  0  0  0  0  0  0  0  0  0  0  0
  1 12  2  0
  2 13  1  0
  3 16  2  0
  4 17  1  0
  4 26  1  0
  5  9  1  0
  5 23  1  0
  6 21  1  0
  6 31  1  0
  7 22  1  0
  7 29  1  0
  8 10  1  0
  8 12  1  0
  8 15  1  0
  9 15  2  0
 10 11  1  0
 10 14  1  0
 11 13  2  0
 11 16  1  0
 12 13  1  0
 14 18  1  0
 14 19  2  0
 15 20  1  0
 16 17  1  0
 17 25  2  0
 18 21  2  0
 19 24  1  0
 20 23  2  0
 21 22  1  0
 22 24  2  0
 23 28  1  0
 25 27  1  0
 26 27  2  0
 26 30  1  0
 29 32  1  0
 32 33  2  0
 32 34  1  0
 33 35  1  0
 34 36  2  0
 35 37  2  0
 36 37  1  0
M  END
> <chembl_id>
CHEMBL1561333

> <chembl_pref_name>
None

$$$$
CHEMBL1611199
     RDKit          2D

 33 36  0  0  0  0  0  0  0  0999 V2000
    1.3304   -2.5958    0.0000 S   0  0  0  0  0  0  0  0  0  0  0  0
    0.5297   -3.9826    0.0000 O   0  0  0  0  0  0  0  0  0  0  0  0
    0.0499   -0.8877    0.0000 O   0  0  0  0  0  0  0  0  0  0  0  0
    2.7030   -2.0689    0.0000 O   0  0  0  0  0  0  0  0  0  0  0  0
    3.1109   -1.0957    0.0000 O   0  0  0  0  0  0  0  0  0  0  0  0
    1.0585   -8.2769    0.0000 O   0  0  0  0  0  0  0  0  0  0  0  0
   -0.2469   -7.6957    0.0000 O   0  0  0  0  0  0  0  0  0  0  0  0
    1.4700   -1.2682    0.0000 N   0  0  0  0  0  0  0  0  0  0  0  0
    2.9616    0.3254    0.0000 N   0  0  0  0  0  0  0  0  0  0  0  0
    0.5768   -2.2602    0.0000 C   0  0  0  0  0  0  0  0  0  0  0  0
    0.6630   -1.4397    0.0000 C   0  0  0  0  0  0  0  0  0  0  0  0
    1.8825   -1.9827    0.0000 C   0  0  0  0  0  0  0  0  0  0  0  0
    0.2748   -4.7673    0.0000 C   0  0  0  0  0  0  0  0  0  0  0  0
   -0.1377   -3.4977    0.0000 C   0  0  0  0  0  0  0  0  0  0  0  0
    0.7597   -5.4347    0.0000 C   0  0  0  0  0  0  0  0  0  0  0  0
   -0.1377   -2.6727    0.0000 C   0  0  0  0  0  0  0  0  0  0  0  0
    1.8055   -0.5145    0.0000 C   0  0  0  0  0  0  0  0  0  0  0  0
   -0.5502   -4.7673    0.0000 C   0  0  0  0  0  0  0  0  0  0  0  0
   -0.8051   -3.9826    0.0000 C   0  0  0  0  0  0  0  0  0  0  0  0
    1.5802   -5.3485    0.0000 C   0  0  0  0  0  0  0  0  0  0  0  0
    0.4242   -6.1884    0.0000 C   0  0  0  0  0  0  0  0  0  0  0  0
    0.9091   -6.8558    0.0000 C   0  0  0  0  0  0  0  0  0  0  0  0
    2.6260   -0.4283    0.0000 C   0  0  0  0  0  0  0  0  0  0  0  0
    2.0651   -6.0159    0.0000 C   0  0  0  0  0  0  0  0  0  0  0  0
    1.7296   -6.7696    0.0000 C   0  0  0  0  0  0  0  0  0  0  0  0
    0.5735   -7.6095    0.0000 C   0  0  0  0  0  0  0  0  0  0  0  0
    1.9158   -4.5948    0.0000 C   0  0  0  0  0  0  0  0  0  0  0  0
    3.7821    0.4116    0.0000 C   0  0  0  0  0  0  0  0  0  0  0  0
    4.1176    1.1653    0.0000 C   0  0  0  0  0  0  0  0  0  0  0  0
    4.2670   -0.2558    0.0000 C   0  0  0  0  0  0  0  0  0  0  0  0
    4.9381    1.2515    0.0000 C   0  0  0  0  0  0  0  0  0  0  0  0
    5.0875   -0.1696    0.0000 C   0  0  0  0  0  0  0  0  0  0  0  0
    5.4230    0.5841    0.0000 C   0  0  0  0  0  0  0  0  0  0  0  0
  1 10  1  0
  1 12  1  0
  2 13  1  0
  2 14  1  0
  3 11  2  0
  4 12  2  0
  5 23  2  0
  6 26  2  0
  7 26  1  0
  8 11  1  0
  8 12  1  0
  8 17  1  0
  9 23  1  0
  9 28  1  0
 10 11  1  0
 10 16  2  0
 13 15  1  0
 13 18  2  0
 14 16  1  0
 14 19  2  0
 15 20  1  0
 15 21  2  0
 17 23  1  0
 18 19  1  0
 20 24  2  0
 20 27  1  0
 21 22  1  0
 22 25  2  0
 22 26  1  0
 24 25  1  0
 28 29  2  0
 28 30  1  0
 29 31  1  0
 30 32  2  0
 31 33  2  0
 32 33  1  0
M  END
> <chembl_id>
CHEMBL1611199

> <chembl_pref_name>
None

$$$$
CHEMBL1387693
     RDKit          2D

 30 34  0  0  0  0  0  0  0  0999 V2000
   -3.8328    1.6326    0.0000 S   0  0  0  0  0  0  0  0  0  0  0  0
   -5.6276    1.6326    0.0000 O   0  0  0  0  0  0  0  0  0  0  0  0
   -0.9047    1.7902    0.0000 O   0  0  0  0  0  0  0  0  0  0  0  0
    2.9012   -0.1500    0.0000 O   0  0  0  0  0  0  0  0  0  0  0  0
   -3.0481    0.5527    0.0000 N   0  0  0  0  0  0  0  0  0  0  0  0
   -3.8328    0.2977    0.0000 N   0  0  0  0  0  0  0  0  0  0  0  0
   -2.3337    1.7902    0.0000 N   0  0  0  0  0  0  0  0  0  0  0  0
   -0.2373   -1.1697    0.0000 N   0  0  0  0  0  0  0  0  0  0  0  0
   -2.3337   -0.6848    0.0000 N   0  0  0  0  0  0  0  0  0  0  0  0
   -3.0481    1.3777    0.0000 C   0  0  0  0  0  0  0  0  0  0  0  0
   -2.3337    0.1402    0.0000 C   0  0  0  0  0  0  0  0  0  0  0  0
   -1.6192    0.5527    0.0000 C   0  0  0  0  0  0  0  0  0  0  0  0
   -4.3177    0.9652    0.0000 C   0  0  0  0  0  0  0  0  0  0  0  0
   -1.6192    1.3777    0.0000 C   0  0  0  0  0  0  0  0  0  0  0  0
   -0.9047    0.1402    0.0000 C   0  0  0  0  0  0  0  0  0  0  0  0
   -5.1427    0.9652    0.0000 C   0  0  0  0  0  0  0  0  0  0  0  0
   -0.9047   -0.6848    0.0000 C   0  0  0  0  0  0  0  0  0  0  0  0
    0.5473   -0.9148    0.0000 C   0  0  0  0  0  0  0  0  0  0  0  0
   -1.5722   -1.1697    0.0000 C   0  0  0  0  0  0  0  0  0  0  0  0
   -5.6276    0.2977    0.0000 C   0  0  0  0  0  0  0  0  0  0  0  0
   -0.4922   -1.9544    0.0000 C   0  0  0  0  0  0  0  0  0  0  0  0
   -1.3172   -1.9544    0.0000 C   0  0  0  0  0  0  0  0  0  0  0  0
   -6.4122    1.3777    0.0000 C   0  0  0  0  0  0  0  0  0  0  0  0
   -6.4122    0.5527    0.0000 C   0  0  0  0  0  0  0  0  0  0  0  0
    0.7189   -0.1078    0.0000 C   0  0  0  0  0  0  0  0  0  0  0  0
    1.1604   -1.4668    0.0000 C   0  0  0  0  0  0  0  0  0  0  0  0
    2.1166   -0.4049    0.0000 C   0  0  0  0  0  0  0  0  0  0  0  0
    1.5035    0.1471    0.0000 C   0  0  0  0  0  0  0  0  0  0  0  0
    1.9451   -1.2119    0.0000 C   0  0  0  0  0  0  0  0  0  0  0  0
    3.0727    0.6570    0.0000 C   0  0  0  0  0  0  0  0  0  0  0  0
  1 10  1  0
  1 13  1  0
  2 16  1  0
  2 23  1  0
  3 14  2  0
  4 27  1  0
  4 30  1  0
  5  6  1  0
  5 10  1  0
 11  5  1  0
  6 13  2  0
  7 10  2  0
  7 14  1  0
  8 17  1  0
  8 18  1  0
  8 21  1  0
  9 11  2  0
 11 12  1  0
 12 14  1  0
 12 15  2  0
 13 16  1  0
 15 17  1  0
 16 20  2  0
 17 19  2  0
 18 25  2  0
 18 26  1  0
 19 22  1  0
 20 24  1  0
 21 22  2  0
 23 24  2  0
 25 28  1  0
 26 29  2  0
 27 28  2  0
 27 29  1  0
M  END
> <chembl_id>
CHEMBL1387693

> <chembl_pref_name>
None

$$$$
CHEMBL35886
     RDKit          2D

 19 21  0  0  0  0  0  0  0  0999 V2000
    4.1542   -4.7625    0.0000 N   0  0  0  0  0  0  0  0  0  0  0  0
    4.6750   -4.4542    0.0000 C   0  0  0  0  0  0  0  0  0  0  0  0
    4.6667   -3.8542    0.0000 C   0  0  0  0  0  0  0  0  0  0  0  0
    3.6375   -4.4542    0.0000 C   0  0  0  0  0  0  0  0  0  0  0  0
    3.6375   -3.8542    0.0000 N   0  0  0  0  0  0  0  0  0  0  0  0
    4.1542   -3.5542    0.0000 C   0  0  0  0  0  0  0  0  0  0  0  0
    5.2417   -3.6667    0.0000 N   0  0  0  0  0  0  0  0  0  0  0  0
    5.2417   -4.6417    0.0000 N   0  0  0  0  0  0  0  0  0  0  0  0
    5.6000   -4.1542    0.0000 C   0  0  0  0  0  0  0  0  0  0  0  0
    3.3375   -4.9792    0.0000 N   0  0  0  0  0  0  0  0  0  0  0  0
    4.1500   -2.9542    0.0000 O   0  0  0  0  0  0  0  0  0  0  0  0
    2.7375   -4.9792    0.0000 C   0  0  0  0  0  0  0  0  0  0  0  0
    2.4375   -4.4625    0.0000 C   0  0  0  0  0  0  0  0  0  0  0  0
    1.8375   -4.4625    0.0000 C   0  0  0  0  0  0  0  0  0  0  0  0
    1.8375   -5.4917    0.0000 C   0  0  0  0  0  0  0  0  0  0  0  0
    2.4375   -5.4917    0.0000 C   0  0  0  0  0  0  0  0  0  0  0  0
    1.5417   -4.9792    0.0000 C   0  0  0  0  0  0  0  0  0  0  0  0
    1.5292   -3.9417    0.0000 C   0  0  0  0  0  0  0  0  0  0  0  0
    1.8292   -3.4250    0.0000 C   0  0  0  0  0  0  0  0  0  0  0  0
  2  1  2  0
  3  2  1  0
  4  1  1  0
  5  4  2  0
  6  5  1  0
  7  3  1  0
  8  2  1  0
  9  8  2  0
 10  4  1  0
 11  6  1  0
 12 10  1  0
 13 12  2  0
 14 13  1  0
 15 16  2  0
 16 12  1  0
 17 15  1  0
 18 14  1  0
 19 18  1  0
  3  6  2  0
  9  7  1  0
 14 17  2  0
M  END
> <chembl_id>
CHEMBL35886

> <chembl_pref_name>
None

$$$$
CHEMBL1443422
     RDKit          2D

 22 23  0  0  0  0  0  0  0  0999 V2000
   -0.5033   -2.4465    0.0000 O   0  0  0  0  0  0  0  0  0  0  0  0
   -0.5033   -5.7465    0.0000 O   0  0  0  0  0  0  0  0  0  0  0  0
    0.2112   -4.5090    0.0000 O   0  0  0  0  0  0  0  0  0  0  0  0
   -0.5033    1.6785    0.0000 O   0  0  0  0  0  0  0  0  0  0  0  0
    0.9257    1.6785    0.0000 O   0  0  0  0  0  0  0  0  0  0  0  0
   -1.9322   -2.4465    0.0000 N   0  0  0  0  0  0  0  0  0  0  0  0
   -1.2177   -1.2090    0.0000 N   0  0  0  0  0  0  0  0  0  0  0  0
   -0.5033   -4.9215    0.0000 N   0  0  0  0  0  0  0  0  0  0  0  0
    0.2112    1.2660    0.0000 N   0  0  0  0  0  0  0  0  0  0  0  0
   -1.9322   -3.2715    0.0000 C   0  0  0  0  0  0  0  0  0  0  0  0
   -0.5033   -0.7965    0.0000 C   0  0  0  0  0  0  0  0  0  0  0  0
   -1.2177   -4.5090    0.0000 C   0  0  0  0  0  0  0  0  0  0  0  0
    0.2112    0.4410    0.0000 C   0  0  0  0  0  0  0  0  0  0  0  0
   -1.2177   -2.0340    0.0000 C   0  0  0  0  0  0  0  0  0  0  0  0
   -1.2177   -3.6840    0.0000 C   0  0  0  0  0  0  0  0  0  0  0  0
   -0.5033    0.0285    0.0000 C   0  0  0  0  0  0  0  0  0  0  0  0
   -2.6467   -3.6840    0.0000 C   0  0  0  0  0  0  0  0  0  0  0  0
    0.2112   -1.2090    0.0000 C   0  0  0  0  0  0  0  0  0  0  0  0
   -1.9322   -4.9215    0.0000 C   0  0  0  0  0  0  0  0  0  0  0  0
    0.9257    0.0285    0.0000 C   0  0  0  0  0  0  0  0  0  0  0  0
   -2.6467   -4.5090    0.0000 C   0  0  0  0  0  0  0  0  0  0  0  0
    0.9257   -0.7965    0.0000 C   0  0  0  0  0  0  0  0  0  0  0  0
  1 14  2  0
  2  8  1  0
  3  8  2  0
  4  9  1  0
  5  9  2  0
  6 10  1  0
  6 14  1  0
  7 11  1  0
  7 14  1  0
  8 12  1  0
  9 13  1  0
 10 15  2  0
 10 17  1  0
 11 16  1  0
 11 18  2  0
 12 15  1  0
 12 19  2  0
 13 16  2  0
 13 20  1  0
 17 21  2  0
 18 22  1  0
 19 21  1  0
 20 22  2  0
M  CHG  4   2  -1   4  -1   8   1   9   1
M  END
> <chembl_id>
CHEMBL1443422

> <chembl_pref_name>
None

$$$$
CHEMBL1450458
     RDKit          2D

 33 37  0  0  0  0  0  0  0  0999 V2000
    0.1668    2.1031    0.0000 O   0  0  0  0  0  0  0  0  0  0  0  0
   -1.2621    2.1031    0.0000 O   0  0  0  0  0  0  0  0  0  0  0  0
    2.3489   -2.3366    0.0000 O   0  0  0  0  0  0  0  0  0  0  0  0
    1.5958    2.9281    0.0000 O   0  0  0  0  0  0  0  0  0  0  0  0
   -0.5476   -0.7844    0.0000 N   0  0  0  0  0  0  0  0  0  0  0  0
    0.8813    4.1656    0.0000 N   0  0  0  0  0  0  0  0  0  0  0  0
    0.1668    0.4531    0.0000 C   0  0  0  0  0  0  0  0  0  0  0  0
   -0.5476    0.8656    0.0000 C   0  0  0  0  0  0  0  0  0  0  0  0
    0.1668   -0.3719    0.0000 C   0  0  0  0  0  0  0  0  0  0  0  0
   -1.2621    0.4531    0.0000 C   0  0  0  0  0  0  0  0  0  0  0  0
   -1.2621   -0.3719    0.0000 C   0  0  0  0  0  0  0  0  0  0  0  0
    0.9514   -0.6268    0.0000 C   0  0  0  0  0  0  0  0  0  0  0  0
    0.9514    0.7081    0.0000 C   0  0  0  0  0  0  0  0  0  0  0  0
   -0.5476    1.6906    0.0000 C   0  0  0  0  0  0  0  0  0  0  0  0
    1.4364    0.0406    0.0000 C   0  0  0  0  0  0  0  0  0  0  0  0
   -1.9766    0.8656    0.0000 C   0  0  0  0  0  0  0  0  0  0  0  0
   -1.9766   -0.7844    0.0000 C   0  0  0  0  0  0  0  0  0  0  0  0
    1.2064   -1.4114    0.0000 C   0  0  0  0  0  0  0  0  0  0  0  0
   -2.6911    0.4531    0.0000 C   0  0  0  0  0  0  0  0  0  0  0  0
    2.0134   -1.5830    0.0000 C   0  0  0  0  0  0  0  0  0  0  0  0
   -2.6911   -0.3719    0.0000 C   0  0  0  0  0  0  0  0  0  0  0  0
    0.1668    2.9281    0.0000 C   0  0  0  0  0  0  0  0  0  0  0  0
    2.6265   -1.0309    0.0000 C   0  0  0  0  0  0  0  0  0  0  0  0
    0.8813    3.3406    0.0000 C   0  0  0  0  0  0  0  0  0  0  0  0
    3.1694   -2.2504    0.0000 C   0  0  0  0  0  0  0  0  0  0  0  0
    3.3409   -1.4434    0.0000 C   0  0  0  0  0  0  0  0  0  0  0  0
    1.5958    4.5781    0.0000 C   0  0  0  0  0  0  0  0  0  0  0  0
    1.5958    5.4031    0.0000 C   0  0  0  0  0  0  0  0  0  0  0  0
    2.3102    4.1656    0.0000 C   0  0  0  0  0  0  0  0  0  0  0  0
    2.3102    5.8156    0.0000 C   0  0  0  0  0  0  0  0  0  0  0  0
    3.0247    4.5781    0.0000 C   0  0  0  0  0  0  0  0  0  0  0  0
    3.0247    5.4031    0.0000 C   0  0  0  0  0  0  0  0  0  0  0  0
    0.8813    5.8156    0.0000 C   0  0  0  0  0  0  0  0  0  0  0  0
  1 14  1  0
  1 22  1  0
  2 14  2  0
  3 20  1  0
  3 25  1  0
  4 24  2  0
  5  9  2  0
  5 11  1  0
  6 24  1  0
  6 27  1  0
  7  8  2  0
  7  9  1  0
  7 13  1  0
  8 10  1  0
  8 14  1  0
  9 12  1  0
 10 11  1  0
 10 16  2  0
 11 17  2  0
 12 15  1  0
 12 18  2  0
 13 15  1  0
 16 19  1  0
 17 21  1  0
 18 20  1  0
 19 21  2  0
 20 23  2  0
 22 24  1  0
 23 26  1  0
 25 26  2  0
 27 28  1  0
 27 29  1  0
 28 30  1  0
 28 33  1  0
 29 31  1  0
 30 32  1  0
 31 32  1  0
M  END
> <chembl_id>
CHEMBL1450458

> <chembl_pref_name>
None

$$$$
CHEMBL42325
     RDKit          2D

 28 31  0  0  0  0  0  0  0  0999 V2000
    8.9917   -7.0625    0.0000 C   0  0  0  0  0  0  0  0  0  0  0  0
    2.5667   -6.6125    0.0000 C   0  0  0  0  0  0  0  0  0  0  0  0
    9.7417   -6.7375    0.0000 N   0  0  0  0  0  0  0  0  0  0  0  0
    2.5667   -5.7875    0.0000 N   0  0  0  0  0  0  0  0  0  0  0  0
    9.0667   -7.8875    0.0000 N   0  0  0  0  0  0  0  0  0  0  0  0
    1.8417   -7.0250    0.0000 N   0  0  0  0  0  0  0  0  0  0  0  0
    3.2667   -7.0292    0.0000 N   0  0  0  0  0  0  0  0  0  0  0  0
    8.2792   -6.6500    0.0000 N   0  0  0  0  0  0  0  0  0  0  0  0
    1.8542   -5.3750    0.0000 C   0  0  0  0  0  0  0  0  0  0  0  0
   10.2917   -7.3500    0.0000 C   0  0  0  0  0  0  0  0  0  0  0  0
    1.1417   -5.7875    0.0000 C   0  0  0  0  0  0  0  0  0  0  0  0
    9.8792   -8.0625    0.0000 C   0  0  0  0  0  0  0  0  0  0  0  0
    3.9917   -6.6250    0.0000 C   0  0  0  0  0  0  0  0  0  0  0  0
    7.5542   -7.0625    0.0000 C   0  0  0  0  0  0  0  0  0  0  0  0
    3.9917   -5.8000    0.0000 O   0  0  0  0  0  0  0  0  0  0  0  0
    7.5542   -7.8875    0.0000 O   0  0  0  0  0  0  0  0  0  0  0  0
    1.8542   -4.5500    0.0000 C   0  0  0  0  0  0  0  0  0  0  0  0
   11.1167   -7.3542    0.0000 C   0  0  0  0  0  0  0  0  0  0  0  0
   10.2792   -8.7750    0.0000 C   0  0  0  0  0  0  0  0  0  0  0  0
    0.4292   -5.3750    0.0000 C   0  0  0  0  0  0  0  0  0  0  0  0
    4.7042   -7.0375    0.0000 C   0  0  0  0  0  0  0  0  0  0  0  0
    6.8417   -6.6417    0.0000 C   0  0  0  0  0  0  0  0  0  0  0  0
    6.1292   -7.0500    0.0000 C   0  0  0  0  0  0  0  0  0  0  0  0
    5.4167   -6.6292    0.0000 C   0  0  0  0  0  0  0  0  0  0  0  0
    1.1417   -4.1292    0.0000 C   0  0  0  0  0  0  0  0  0  0  0  0
    0.4292   -4.5500    0.0000 C   0  0  0  0  0  0  0  0  0  0  0  0
   11.1042   -8.7792    0.0000 C   0  0  0  0  0  0  0  0  0  0  0  0
   11.5167   -8.0625    0.0000 C   0  0  0  0  0  0  0  0  0  0  0  0
  2  7  1  0
  3  1  2  0
  4  2  2  0
  5  1  1  0
  6  2  1  0
  7 13  1  0
  8  1  1  0
  9  4  1  0
 10  3  1  0
 11  6  1  0
 12  5  1  0
 13 21  1  0
 14  8  1  0
 15 13  2  0
 16 14  2  0
 17  9  1  0
 18 10  1  0
 19 12  1  0
 20 11  1  0
 21 24  1  0
 22 14  1  0
 23 22  1  0
 24 23  1  0
 25 17  2  0
 26 20  2  0
 27 19  2  0
 28 18  2  0
 10 12  2  0
 27 28  1  0
  9 11  2  0
 25 26  1  0
M  END
> <chembl_id>
CHEMBL42325

> <chembl_pref_name>
None

$$$$
CHEMBL82411
     RDKit          2D

 13 14  0  0  0  0  0  0  0  0999 V2000
   -1.7378   -0.5196    0.0000 C   0  0  0  0  0  0  0  0  0  0  0  0
   -1.7378    0.3054    0.0000 C   0  0  0  0  0  0  0  0  0  0  0  0
   -1.0233    0.7179    0.0000 C   0  0  0  0  0  0  0  0  0  0  0  0
   -0.3088    0.3054    0.0000 C   0  0  0  0  0  0  0  0  0  0  0  0
   -0.3088   -0.5196    0.0000 C   0  0  0  0  0  0  0  0  0  0  0  0
   -1.0233   -0.9321    0.0000 C   0  0  0  0  0  0  0  0  0  0  0  0
   -2.5224    0.5603    0.0000 C   0  0  0  0  0  0  0  0  0  0  0  0
   -3.0073   -0.1071    0.0000 C   0  0  0  0  0  0  0  0  0  0  0  0
   -2.7773    1.3449    0.0000 C   0  0  0  0  0  0  0  0  0  0  0  0
   -2.2253    1.9580    0.0000 C   0  0  0  0  0  0  0  0  0  0  0  0
   -2.5224   -0.7746    0.0000 N   0  0  0  0  0  0  0  0  0  0  0  0
   -2.4802    2.7426    0.0000 O   0  0  0  0  0  0  0  0  0  0  0  0
   -1.4183    1.7865    0.0000 O   0  0  0  0  0  0  0  0  0  0  0  0
  1 11  1  0
  1  2  2  0
  1  6  1  0
  2  7  1  0
  2  3  1  0
  3  4  2  0
  4  5  1  0
  5  6  2  0
  9  7  1  0
  7  8  2  0
  8 11  1  0
  9 10  1  0
 10 13  2  0
 10 12  1  0
M  END
> <chembl_id>
CHEMBL82411

> <chembl_pref_name>
INDOLE-3-ACETIC ACID

$$$$
CHEMBL1489865
     RDKit          2D

 34 37  0  0  0  0  0  0  0  0999 V2000
   -1.4694    1.0318    0.0000 O   0  0  0  0  0  0  0  0  0  0  0  0
   -2.0240    2.7388    0.0000 O   0  0  0  0  0  0  0  0  0  0  0  0
    1.1460    1.1180    0.0000 O   0  0  0  0  0  0  0  0  0  0  0  0
   -1.0167   -1.9829    0.0000 O   0  0  0  0  0  0  0  0  0  0  0  0
    3.2340    3.5036    0.0000 O   0  0  0  0  0  0  0  0  0  0  0  0
   -0.5719    2.9688    0.0000 N   0  0  0  0  0  0  0  0  0  0  0  0
    0.1425    4.2063    0.0000 N   0  0  0  0  0  0  0  0  0  0  0  0
    0.0955    2.4838    0.0000 C   0  0  0  0  0  0  0  0  0  0  0  0
   -0.1594    1.6992    0.0000 C   0  0  0  0  0  0  0  0  0  0  0  0
   -0.9844    1.6992    0.0000 C   0  0  0  0  0  0  0  0  0  0  0  0
   -1.2394    2.4838    0.0000 C   0  0  0  0  0  0  0  0  0  0  0  0
    0.3255    1.0318    0.0000 C   0  0  0  0  0  0  0  0  0  0  0  0
    0.8801    2.7388    0.0000 C   0  0  0  0  0  0  0  0  0  0  0  0
   -0.5719    3.7938    0.0000 C   0  0  0  0  0  0  0  0  0  0  0  0
   -0.0101    0.2781    0.0000 C   0  0  0  0  0  0  0  0  0  0  0  0
    1.0517    3.5457    0.0000 C   0  0  0  0  0  0  0  0  0  0  0  0
    1.4932    2.1867    0.0000 C   0  0  0  0  0  0  0  0  0  0  0  0
   -1.2864    4.2063    0.0000 C   0  0  0  0  0  0  0  0  0  0  0  0
    0.4749   -0.3893    0.0000 C   0  0  0  0  0  0  0  0  0  0  0  0
   -0.8305    0.1919    0.0000 C   0  0  0  0  0  0  0  0  0  0  0  0
    0.1393   -1.1430    0.0000 C   0  0  0  0  0  0  0  0  0  0  0  0
    1.8363    3.8007    0.0000 C   0  0  0  0  0  0  0  0  0  0  0  0
    2.2778    2.4417    0.0000 C   0  0  0  0  0  0  0  0  0  0  0  0
    2.4494    3.2487    0.0000 C   0  0  0  0  0  0  0  0  0  0  0  0
   -0.6812   -1.2292    0.0000 C   0  0  0  0  0  0  0  0  0  0  0  0
   -1.1661   -0.5618    0.0000 C   0  0  0  0  0  0  0  0  0  0  0  0
    0.1425    5.0313    0.0000 C   0  0  0  0  0  0  0  0  0  0  0  0
   -1.2864    5.0313    0.0000 C   0  0  0  0  0  0  0  0  0  0  0  0
   -0.5719    5.4438    0.0000 C   0  0  0  0  0  0  0  0  0  0  0  0
    0.6242   -1.8104    0.0000 C   0  0  0  0  0  0  0  0  0  0  0  0
   -0.5318   -2.6504    0.0000 C   0  0  0  0  0  0  0  0  0  0  0  0
    3.8471    2.9516    0.0000 C   0  0  0  0  0  0  0  0  0  0  0  0
   -0.8674   -3.4040    0.0000 C   0  0  0  0  0  0  0  0  0  0  0  0
   -0.3825   -4.0715    0.0000 C   0  0  0  0  0  0  0  0  0  0  0  0
  1 10  1  0
  2 11  2  0
  3 12  2  0
  4 25  1  0
  4 31  1  0
  5 24  1  0
  5 32  1  0
  6  8  1  0
  6 11  1  0
  6 14  1  0
  7 14  1  0
  7 27  2  0
  8  9  1  0
  8 13  1  0
  9 10  2  0
  9 12  1  0
 10 11  1  0
 12 15  1  0
 13 16  2  0
 13 17  1  0
 14 18  2  0
 15 19  1  0
 15 20  2  0
 16 22  1  0
 17 23  2  0
 18 28  1  0
 19 21  2  0
 20 26  1  0
 21 25  1  0
 21 30  1  0
 22 24  2  0
 23 24  1  0
 25 26  2  0
 27 29  1  0
 28 29  2  0
 31 33  1  0
 33 34  1  0
M  END
> <chembl_id>
CHEMBL1489865

> <chembl_pref_name>
None

$$$$
CHEMBL1504875
     RDKit          2D

 30 33  0  0  0  0  0  0  0  0999 V2000
   -2.9158    2.6315    0.0000 O   0  0  0  0  0  0  0  0  0  0  0  0
   -2.9080    0.0072    0.0000 O   0  0  0  0  0  0  0  0  0  0  0  0
   -0.7254   -0.3284    0.0000 O   0  0  0  0  0  0  0  0  0  0  0  0
   -1.4398    0.9091    0.0000 N   0  0  0  0  0  0  0  0  0  0  0  0
   -3.5832    1.3216    0.0000 C   0  0  0  0  0  0  0  0  0  0  0  0
   -4.2977    0.9091    0.0000 C   0  0  0  0  0  0  0  0  0  0  0  0
   -3.5832    2.1466    0.0000 C   0  0  0  0  0  0  0  0  0  0  0  0
   -1.4398    0.0841    0.0000 C   0  0  0  0  0  0  0  0  0  0  0  0
   -2.1543   -0.3284    0.0000 C   0  0  0  0  0  0  0  0  0  0  0  0
   -2.8688    0.9091    0.0000 C   0  0  0  0  0  0  0  0  0  0  0  0
   -2.1543    1.3216    0.0000 C   0  0  0  0  0  0  0  0  0  0  0  0
   -0.7254    1.3216    0.0000 C   0  0  0  0  0  0  0  0  0  0  0  0
   -4.2977    0.0841    0.0000 C   0  0  0  0  0  0  0  0  0  0  0  0
   -5.0122    1.3216    0.0000 C   0  0  0  0  0  0  0  0  0  0  0  0
   -4.2507    2.6315    0.0000 C   0  0  0  0  0  0  0  0  0  0  0  0
   -0.0109    0.9091    0.0000 C   0  0  0  0  0  0  0  0  0  0  0  0
   -2.2405   -1.1489    0.0000 C   0  0  0  0  0  0  0  0  0  0  0  0
   -5.7266    0.0841    0.0000 C   0  0  0  0  0  0  0  0  0  0  0  0
   -5.0122   -0.3284    0.0000 C   0  0  0  0  0  0  0  0  0  0  0  0
   -5.7266    0.9091    0.0000 C   0  0  0  0  0  0  0  0  0  0  0  0
   -3.1707    3.4162    0.0000 C   0  0  0  0  0  0  0  0  0  0  0  0
   -3.9957    3.4162    0.0000 C   0  0  0  0  0  0  0  0  0  0  0  0
   -3.4600   -0.6059    0.0000 C   0  0  0  0  0  0  0  0  0  0  0  0
   -3.0475   -1.3204    0.0000 C   0  0  0  0  0  0  0  0  0  0  0  0
    0.7036    1.3216    0.0000 C   0  0  0  0  0  0  0  0  0  0  0  0
   -0.0109    0.0841    0.0000 C   0  0  0  0  0  0  0  0  0  0  0  0
    1.4181    0.9091    0.0000 C   0  0  0  0  0  0  0  0  0  0  0  0
    0.7036   -0.3284    0.0000 C   0  0  0  0  0  0  0  0  0  0  0  0
   -6.4411   -0.3284    0.0000 C   0  0  0  0  0  0  0  0  0  0  0  0
    1.4181    0.0841    0.0000 C   0  0  0  0  0  0  0  0  0  0  0  0
  1  7  1  0
  1 21  1  0
  2  9  1  0
  2 23  1  0
  3  8  2  0
  4  8  1  0
  4 11  1  0
  4 12  1  0
  5  6  1  0
  5  7  1  0
  5 10  1  0
  6 13  2  0
  6 14  1  0
  7 15  2  0
  8  9  1  0
  9 17  2  0
 10 11  1  0
 12 16  1  0
 13 19  1  0
 14 20  2  0
 15 22  1  0
 16 25  2  0
 16 26  1  0
 17 24  1  0
 18 19  2  0
 18 20  1  0
 18 29  1  0
 21 22  2  0
 23 24  2  0
 25 27  1  0
 26 28  2  0
 27 30  2  0
 28 30  1  0
M  END
> <chembl_id>
CHEMBL1504875

> <chembl_pref_name>
None

$$$$
CHEMBL1600566
     RDKit          2D

 31 35  0  0  0  0  0  0  0  0999 V2000
    4.7999   -0.6120    0.0000 O   0  0  0  0  0  0  0  0  0  0  0  0
    4.2200   -1.5843    0.0000 O   0  0  0  0  0  0  0  0  0  0  0  0
    2.8861   -2.7853    0.0000 O   0  0  0  0  0  0  0  0  0  0  0  0
    3.0774    0.7699    0.0000 O   0  0  0  0  0  0  0  0  0  0  0  0
    0.0042   -2.0274    0.0000 O   0  0  0  0  0  0  0  0  0  0  0  0
    2.0854   -1.5523    0.0000 N   0  0  0  0  0  0  0  0  0  0  0  0
    0.6173   -1.4753    0.0000 N   0  0  0  0  0  0  0  0  0  0  0  0
    2.2570   -0.7453    0.0000 C   0  0  0  0  0  0  0  0  0  0  0  0
    3.0774   -0.6591    0.0000 C   0  0  0  0  0  0  0  0  0  0  0  0
    3.4130   -1.4127    0.0000 C   0  0  0  0  0  0  0  0  0  0  0  0
    2.7999   -1.9648    0.0000 C   0  0  0  0  0  0  0  0  0  0  0  0
    3.4899    0.0554    0.0000 C   0  0  0  0  0  0  0  0  0  0  0  0
    1.3317   -1.8878    0.0000 C   0  0  0  0  0  0  0  0  0  0  0  0
    1.7049   -0.1322    0.0000 C   0  0  0  0  0  0  0  0  0  0  0  0
    4.3149    0.0554    0.0000 C   0  0  0  0  0  0  0  0  0  0  0  0
    1.1602   -2.6948    0.0000 C   0  0  0  0  0  0  0  0  0  0  0  0
    4.7999    0.7228    0.0000 C   0  0  0  0  0  0  0  0  0  0  0  0
    5.5845   -0.3571    0.0000 C   0  0  0  0  0  0  0  0  0  0  0  0
    5.5845    0.4679    0.0000 C   0  0  0  0  0  0  0  0  0  0  0  0
    0.8979   -0.3037    0.0000 C   0  0  0  0  0  0  0  0  0  0  0  0
    1.9599    0.6524    0.0000 C   0  0  0  0  0  0  0  0  0  0  0  0
    0.3397   -2.7810    0.0000 C   0  0  0  0  0  0  0  0  0  0  0  0
    0.3459    0.3094    0.0000 C   0  0  0  0  0  0  0  0  0  0  0  0
    1.4078    1.2655    0.0000 C   0  0  0  0  0  0  0  0  0  0  0  0
    6.2989   -0.7696    0.0000 C   0  0  0  0  0  0  0  0  0  0  0  0
    6.2989    0.8804    0.0000 C   0  0  0  0  0  0  0  0  0  0  0  0
    0.6009    1.0940    0.0000 C   0  0  0  0  0  0  0  0  0  0  0  0
    7.0134   -0.3571    0.0000 C   0  0  0  0  0  0  0  0  0  0  0  0
    7.0134    0.4679    0.0000 C   0  0  0  0  0  0  0  0  0  0  0  0
   -0.0728   -3.4955    0.0000 C   0  0  0  0  0  0  0  0  0  0  0  0
    0.0488    1.7071    0.0000 C   0  0  0  0  0  0  0  0  0  0  0  0
  1 15  1  0
  1 18  1  0
  2 10  1  0
  3 11  2  0
  4 12  2  0
  5  7  1  0
  5 22  1  0
  6  8  1  0
  6 11  1  0
  6 13  1  0
  7 13  2  0
  8  9  1  0
  8 14  1  0
  9 10  2  0
  9 12  1  0
 10 11  1  0
 12 15  1  0
 13 16  1  0
 14 20  2  0
 14 21  1  0
 15 17  2  0
 16 22  2  0
 17 19  1  0
 18 19  1  0
 18 25  2  0
 19 26  2  0
 20 23  1  0
 21 24  2  0
 22 30  1  0
 23 27  2  0
 24 27  1  0
 25 28  1  0
 26 29  1  0
 27 31  1  0
 28 29  2  0
M  END
> <chembl_id>
CHEMBL1600566

> <chembl_pref_name>
None

$$$$
CHEMBL288114
     RDKit          2D

 12 12  0  0  0  0  0  0  0  0999 V2000
    0.0375   -1.7625    0.0000 C   0  0  0  0  0  0  0  0  0  0  0  0
    0.0375    1.1208    0.0000 C   0  0  0  0  0  0  0  0  0  0  0  0
    1.2792   -1.0542    0.0000 C   0  0  0  0  0  0  0  0  0  0  0  0
   -1.2000   -1.0542    0.0000 C   0  0  0  0  0  0  0  0  0  0  0  0
    0.0375    2.5708    0.0000 C   0  0  0  0  0  0  0  0  0  0  0  0
   -1.2000    0.3958    0.0000 C   0  0  0  0  0  0  0  0  0  0  0  0
    1.2792    0.3958    0.0000 C   0  0  0  0  0  0  0  0  0  0  0  0
   -1.2000    3.2750    0.0000 O   0  0  0  0  0  0  0  0  0  0  0  0
    0.0375   -3.1792    0.0000 O   0  0  0  0  0  0  0  0  0  0  0  0
    2.5000   -1.7792    0.0000 O   0  0  0  0  0  0  0  0  0  0  0  0
   -2.4208   -1.7792    0.0000 O   0  0  0  0  0  0  0  0  0  0  0  0
    1.2792    3.2750    0.0000 O   0  0  0  0  0  0  0  0  0  0  0  0
  2  6  2  0
  3  1  1  0
  4  1  2  0
  5  2  1  0
  6  4  1  0
  7  3  2  0
  8  5  2  0
  9  1  1  0
 10  3  1  0
 11  4  1  0
 12  5  1  0
  7  2  1  0
M  END
> <chembl_id>
CHEMBL288114

> <chembl_pref_name>
GALLIC ACID

$$$$
CHEMBL499444
     RDKit          2D

 22 23  0  0  0  0  0  0  0  0999 V2000
    0.7780   -8.5849    0.0000 C   0  0  0  0  0  0  0  0  0  0  0  0
    1.4925   -8.1724    0.0000 C   0  0  0  0  0  0  0  0  0  0  0  0
    1.4925   -7.3474    0.0000 C   0  0  0  0  0  0  0  0  0  0  0  0
    0.7780   -6.9349    0.0000 C   0  0  0  0  0  0  0  0  0  0  0  0
    0.0636   -7.3474    0.0000 C   0  0  0  0  0  0  0  0  0  0  0  0
    0.0636   -8.1724    0.0000 C   0  0  0  0  0  0  0  0  0  0  0  0
   -0.6509   -6.9349    0.0000 C   0  0  0  0  0  0  0  0  0  0  0  0
   -1.3654   -7.3474    0.0000 C   0  0  0  0  0  0  0  0  0  0  0  0
   -0.6509   -6.1099    0.0000 O   0  0  0  0  0  0  0  0  0  0  0  0
   -2.0798   -6.9349    0.0000 C   0  0  0  0  0  0  0  0  0  0  0  0
   -2.7943   -7.3474    0.0000 C   0  0  0  0  0  0  0  0  0  0  0  0
   -2.0798   -6.1099    0.0000 O   0  0  0  0  0  0  0  0  0  0  0  0
   -3.5088   -6.9349    0.0000 O   0  0  0  0  0  0  0  0  0  0  0  0
   -2.7943   -8.1724    0.0000 O   0  0  0  0  0  0  0  0  0  0  0  0
    0.7780   -6.1099    0.0000 O   0  0  0  0  0  0  0  0  0  0  0  0
    0.0636   -5.6974    0.0000 C   0  0  0  0  0  0  0  0  0  0  0  0
    0.0636   -4.8724    0.0000 C   0  0  0  0  0  0  0  0  0  0  0  0
   -0.6509   -4.4599    0.0000 C   0  0  0  0  0  0  0  0  0  0  0  0
   -0.6509   -3.6349    0.0000 C   0  0  0  0  0  0  0  0  0  0  0  0
    0.0636   -3.2224    0.0000 C   0  0  0  0  0  0  0  0  0  0  0  0
    0.7780   -3.6349    0.0000 C   0  0  0  0  0  0  0  0  0  0  0  0
    0.7780   -4.4599    0.0000 C   0  0  0  0  0  0  0  0  0  0  0  0
 10 11  1  0
  5  6  2  0
 10 12  1  0
  6  1  1  0
 11 13  2  0
  1  2  2  0
 11 14  1  0
  5  7  1  0
  4 15  1  0
  3  4  2  0
 15 16  1  0
  7  8  1  0
 16 17  1  0
 17 18  2  0
  7  9  2  0
 18 19  1  0
  4  5  1  0
 19 20  2  0
  8 10  2  0
 20 21  1  0
  2  3  1  0
 21 22  2  0
 22 17  1  0
M  END
> <chembl_id>
CHEMBL499444

> <chembl_pref_name>
None

$$$$
CHEMBL380997
     RDKit          2D

 24 26  0  0  1  0  0  0  0  0999 V2000
   13.1330  -18.6347    0.0000 C   0  0  0  0  0  0  0  0  0  0  0  0
   13.1317  -19.4617    0.0000 C   0  0  0  0  0  0  0  0  0  0  0  0
   13.8442  -19.8743    0.0000 C   0  0  0  0  0  0  0  0  0  0  0  0
   13.8422  -18.2223    0.0000 C   0  0  0  0  0  0  0  0  0  0  0  0
   14.5597  -18.6307    0.0000 C   0  0  0  0  0  0  0  0  0  0  0  0
   14.5602  -19.4617    0.0000 C   0  0  0  0  0  0  0  0  0  0  0  0
   15.3507  -19.7180    0.0000 S   0  0  0  0  0  0  0  0  0  0  0  0
   15.3499  -18.3735    0.0000 C   0  0  0  0  0  0  0  0  0  0  0  0
   15.8416  -19.0452    0.0000 C   0  0  0  0  0  0  0  0  0  0  0  0
   16.6646  -18.9556    0.0000 C   0  0  0  0  0  0  0  0  0  0  0  0
   17.0024  -18.1954    0.0000 O   0  0  0  0  0  0  0  0  0  0  0  0
   16.5105  -17.5237    0.0000 C   0  0  0  0  0  0  0  0  0  0  0  0
   15.6811  -17.6123    0.0000 C   0  0  0  0  0  0  0  0  0  0  0  0
   16.6564  -19.7797    0.0000 C   0  0  0  0  0  0  0  0  0  0  0  0
   17.4533  -19.1660    0.0000 C   0  0  0  0  0  0  0  0  0  0  0  0
   18.0355  -18.5825    0.0000 C   0  0  0  0  0  0  0  0  0  0  0  0
   18.8320  -18.7950    0.0000 O   0  0  0  0  0  0  0  0  0  0  0  0
   17.8212  -17.7865    0.0000 O   0  0  0  0  0  0  0  0  0  0  0  0
   17.3661  -20.1991    0.0000 C   0  0  0  0  0  0  0  0  0  0  0  0
   17.3577  -21.0233    0.0000 C   0  0  0  0  0  0  0  0  0  0  0  0
   13.8432  -20.6986    0.0000 C   0  0  0  0  0  0  0  0  0  0  0  0
   13.8340  -17.4009    0.0000 C   0  0  0  0  0  0  0  0  0  0  0  0
   13.8302  -16.5766    0.0000 N   0  0  0  0  0  0  0  0  0  0  0  0
   12.4187  -18.2232    0.0000 F   0  0  0  0  0  0  0  0  0  0  0  0
  8 13  1  0
  9 10  1  0
 10 11  1  0
 11 12  1  0
 12 13  1  0
  3  6  2  0
 10 14  1  1
  6  7  1  0
 10 15  1  0
  7  9  1  0
 15 16  1  0
  8  5  1  0
 16 17  1  0
  8  9  2  0
 16 18  2  0
  1  2  2  0
 14 19  1  0
  5  4  2  0
 19 20  1  0
  4  1  1  0
  3 21  1  0
  5  6  1  0
 22 23  3  0
  4 22  1  0
  2  3  1  0
  1 24  1  0
M  END
> <chembl_id>
CHEMBL380997

> <chembl_pref_name>
None

$$$$
CHEMBL1813562
     RDKit          2D

 63 68  0  0  0  0  0  0  0  0999 V2000
    4.7054   -2.0547    0.0000 O   0  0  0  0  0  0  0  0  0  0  0  0
    3.9016   -1.8402    0.0000 S   0  0  0  0  0  0  0  0  0  0  0  0
    4.1176   -2.6434    0.0000 O   0  0  0  0  0  0  0  0  0  0  0  0
    1.0572    1.4462    0.0000 O   0  0  0  0  0  0  0  0  0  0  0  0
    0.3442    1.8648    0.0000 C   0  0  0  0  0  0  0  0  0  0  0  0
   -1.0751    2.6953    0.0000 N   0  0  0  0  0  0  0  0  0  0  0  0
   -1.0762    1.8670    0.0000 C   0  0  0  0  0  0  0  0  0  0  0  0
   -0.3637    1.4572    0.0000 C   0  0  0  0  0  0  0  0  0  0  0  0
   -0.3588    3.1078    0.0000 C   0  0  0  0  0  0  0  0  0  0  0  0
    0.3500    2.6927    0.0000 C   0  0  0  0  0  0  0  0  0  0  0  0
    1.0582    3.0974    0.0000 C   0  0  0  0  0  0  0  0  0  0  0  0
    1.0644    3.9189    0.0000 C   0  0  0  0  0  0  0  0  0  0  0  0
    0.3487    4.3297    0.0000 C   0  0  0  0  0  0  0  0  0  0  0  0
   -0.3567    3.9237    0.0000 C   0  0  0  0  0  0  0  0  0  0  0  0
    0.3472    5.1545    0.0000 O   0  0  0  0  0  0  0  0  0  0  0  0
    1.0631    5.5681    0.0000 C   0  0  0  0  0  0  0  0  0  0  0  0
   -1.7907    1.4546    0.0000 C   0  0  0  0  0  0  0  0  0  0  0  0
   -2.5041    1.8705    0.0000 C   0  0  0  0  0  0  0  0  0  0  0  0
   -3.2180    1.4551    0.0000 C   0  0  0  0  0  0  0  0  0  0  0  0
   -3.2187    0.6332    0.0000 C   0  0  0  0  0  0  0  0  0  0  0  0
   -2.5006    0.2211    0.0000 C   0  0  0  0  0  0  0  0  0  0  0  0
   -1.7872    0.6319    0.0000 C   0  0  0  0  0  0  0  0  0  0  0  0
    1.0552    0.6216    0.0000 C   0  0  0  0  0  0  0  0  0  0  0  0
    0.3346    0.2177    0.0000 C   0  0  0  0  0  0  0  0  0  0  0  0
    0.3321   -0.6058    0.0000 C   0  0  0  0  0  0  0  0  0  0  0  0
    1.0443   -1.0205    0.0000 C   0  0  0  0  0  0  0  0  0  0  0  0
    1.7613   -0.6068    0.0000 C   0  0  0  0  0  0  0  0  0  0  0  0
    1.7626    0.2146    0.0000 C   0  0  0  0  0  0  0  0  0  0  0  0
    1.0398   -1.8452    0.0000 C   0  0  0  0  0  0  0  0  0  0  0  0
   -0.3830   -1.8559    0.0000 C   0  0  0  0  0  0  0  0  0  0  0  0
   -1.0956   -2.2643    0.0000 C   0  0  0  0  0  0  0  0  0  0  0  0
   -0.3785   -1.0312    0.0000 O   0  0  0  0  0  0  0  0  0  0  0  0
   -1.1001   -3.0891    0.0000 C   0  0  0  0  0  0  0  0  0  0  0  0
   -1.8169   -3.5017    0.0000 C   0  0  0  0  0  0  0  0  0  0  0  0
   -0.3878   -3.5052    0.0000 C   0  0  0  0  0  0  0  0  0  0  0  0
   -1.1067   -3.9153    0.0000 C   0  0  0  0  0  0  0  0  0  0  0  0
    1.7520   -2.2614    0.0000 C   0  0  0  0  0  0  0  0  0  0  0  0
    2.4687   -1.8488    0.0000 O   0  0  0  0  0  0  0  0  0  0  0  0
    2.4639   -3.5023    0.0000 C   0  0  0  0  0  0  0  0  0  0  0  0
    2.4593   -4.3271    0.0000 C   0  0  0  0  0  0  0  0  0  0  0  0
    3.1807   -3.0898    0.0000 C   0  0  0  0  0  0  0  0  0  0  0  0
    3.1759   -4.7434    0.0000 C   0  0  0  0  0  0  0  0  0  0  0  0
    3.1714   -5.5681    0.0000 C   0  0  0  0  0  0  0  0  0  0  0  0
    2.1644    0.4803    0.0000 C   0  0  0  0  0  0  0  0  0  0  0  0
    3.9016   -3.5071    0.0000 O   0  0  0  0  0  0  0  0  0  0  0  0
    3.9047   -1.0079    0.0000 C   0  0  0  0  0  0  0  0  0  0  0  0
    4.6279   -0.5936    0.0000 C   0  0  0  0  0  0  0  0  0  0  0  0
    4.6293    0.2387    0.0000 C   0  0  0  0  0  0  0  0  0  0  0  0
    3.9076    0.6571    0.0000 C   0  0  0  0  0  0  0  0  0  0  0  0
    3.1833    0.2368    0.0000 C   0  0  0  0  0  0  0  0  0  0  0  0
    3.1855   -0.5941    0.0000 C   0  0  0  0  0  0  0  0  0  0  0  0
    2.8160    0.4571    0.0000 C   0  0  0  0  0  0  0  0  0  0  0  0
   -2.5319   -2.2561    0.0000 C   0  0  0  0  0  0  0  0  0  0  0  0
   -2.5282   -3.0881    0.0000 O   0  0  0  0  0  0  0  0  0  0  0  0
   -3.2579   -1.8404    0.0000 O   0  0  0  0  0  0  0  0  0  0  0  0
   -3.9839   -2.2569    0.0000 C   0  0  0  0  0  0  0  0  0  0  0  0
   -4.7054   -1.8405    0.0000 C   0  0  0  0  0  0  0  0  0  0  0  0
   -3.9839   -3.0853    0.0000 C   0  0  0  0  0  0  0  0  0  0  0  0
   -4.6997   -2.6817    0.0000 C   0  0  0  0  0  0  0  0  0  0  0  0
    0.3314   -2.2683    0.0000 N   0  0  0  0  0  0  0  0  0  0  0  0
   -1.8114   -1.8541    0.0000 N   0  0  0  0  0  0  0  0  0  0  0  0
    1.7514   -3.0865    0.0000 N   0  0  0  0  0  0  0  0  0  0  0  0
    3.1943   -2.2648    0.0000 N   0  0  0  0  0  0  0  0  0  0  0  0
  2  1  2  0
  3  2  2  0
  4  5  1  0
  5 10  2  0
  9  6  2  0
  6  7  1  0
  7  8  2  0
  8  5  1  0
  9 10  1  0
 10 11  1  0
 11 12  2  0
 12 13  1  0
 13 14  2  0
 14  9  1  0
 13 15  1  0
 15 16  1  0
  7 17  1  0
 17 18  2  0
 18 19  1  0
 19 20  2  0
 20 21  1  0
 21 22  2  0
 22 17  1  0
  4 23  1  0
 23 24  2  0
 24 25  1  0
 25 26  2  0
 26 27  1  0
 27 28  2  0
 28 23  1  0
 29 26  1  0
 30 31  1  0
 30 32  2  0
 31 33  1  6
 33 34  1  0
 33 35  1  0
 33 36  1  0
 29 37  1  0
 37 38  2  0
 39 40  1  6
 39 41  1  0
 40 42  1  0
 42 43  1  0
 28 44  1  0
 41 45  2  0
  2 46  1  0
 46 47  2  0
 47 48  1  0
 48 49  2  0
 49 50  1  0
 50 51  2  0
 51 46  1  0
 44 52  2  0
 52 51  1  0
 53 54  2  0
 53 55  1  0
 55 56  1  0
 56 57  1  0
 56 58  1  0
 56 59  1  0
 29 60  1  1
 30 60  1  0
 31 61  1  0
 53 61  1  0
 37 62  1  0
 39 62  1  0
 41 63  1  0
  2 63  1  0
M  END
> <chembl_id>
CHEMBL1813562

> <chembl_pref_name>
None

$$$$
CHEMBL1365290
     RDKit          2D

 25 27  0  0  0  0  0  0  0  0999 V2000
   -1.2984    1.4858    0.0000 O   0  0  0  0  0  0  0  0  0  0  0  0
   -4.1563    1.4858    0.0000 O   0  0  0  0  0  0  0  0  0  0  0  0
   -2.7274   -0.9892    0.0000 O   0  0  0  0  0  0  0  0  0  0  0  0
   -2.6803   -2.7116    0.0000 O   0  0  0  0  0  0  0  0  0  0  0  0
   -2.7274    1.4858    0.0000 N   0  0  0  0  0  0  0  0  0  0  0  0
   -3.4418    0.2483    0.0000 N   0  0  0  0  0  0  0  0  0  0  0  0
   -2.0129    1.0733    0.0000 C   0  0  0  0  0  0  0  0  0  0  0  0
   -2.0129    0.2483    0.0000 C   0  0  0  0  0  0  0  0  0  0  0  0
   -2.7274    2.3108    0.0000 C   0  0  0  0  0  0  0  0  0  0  0  0
   -3.4418    1.0733    0.0000 C   0  0  0  0  0  0  0  0  0  0  0  0
   -2.7274   -0.1642    0.0000 C   0  0  0  0  0  0  0  0  0  0  0  0
   -3.4418    2.7233    0.0000 C   0  0  0  0  0  0  0  0  0  0  0  0
   -2.0129    2.7233    0.0000 C   0  0  0  0  0  0  0  0  0  0  0  0
   -1.2984   -0.1642    0.0000 C   0  0  0  0  0  0  0  0  0  0  0  0
   -3.4418    3.5483    0.0000 C   0  0  0  0  0  0  0  0  0  0  0  0
   -2.7274    3.9608    0.0000 C   0  0  0  0  0  0  0  0  0  0  0  0
   -2.0129    3.5483    0.0000 C   0  0  0  0  0  0  0  0  0  0  0  0
   -1.2984   -0.9892    0.0000 C   0  0  0  0  0  0  0  0  0  0  0  0
   -2.0129   -1.4017    0.0000 C   0  0  0  0  0  0  0  0  0  0  0  0
   -4.1563    3.9608    0.0000 C   0  0  0  0  0  0  0  0  0  0  0  0
   -2.0129   -2.2267    0.0000 C   0  0  0  0  0  0  0  0  0  0  0  0
   -2.7274    4.7858    0.0000 C   0  0  0  0  0  0  0  0  0  0  0  0
   -1.3455   -2.7116    0.0000 C   0  0  0  0  0  0  0  0  0  0  0  0
   -2.4254   -3.4963    0.0000 C   0  0  0  0  0  0  0  0  0  0  0  0
   -1.6004   -3.4963    0.0000 C   0  0  0  0  0  0  0  0  0  0  0  0
  1  7  2  0
  2 10  2  0
  3 11  2  0
  4 21  1  0
  4 24  1  0
  5  7  1  0
  5  9  1  0
  5 10  1  0
  6 10  1  0
  6 11  1  0
  7  8  1  0
  8 11  1  0
  8 14  2  0
  9 12  1  0
  9 13  2  0
 12 15  2  0
 13 17  1  0
 14 18  1  0
 15 16  1  0
 15 20  1  0
 16 17  2  0
 16 22  1  0
 18 19  2  0
 19 21  1  0
 21 23  2  0
 23 25  1  0
 24 25  2  0
M  END
> <chembl_id>
CHEMBL1365290

> <chembl_pref_name>
None

$$$$
CHEMBL4105631
     RDKit          2D

 38 40  0  0  0  0  0  0  0  0999 V2000
   29.3281  -19.4392    0.0000 O   0  0  0  0  0  0  0  0  0  0  0  0
   28.9236  -18.7335    0.0000 S   0  0  0  0  0  0  0  0  0  0  0  0
   28.5146  -19.4366    0.0000 O   0  0  0  0  0  0  0  0  0  0  0  0
   20.0253  -16.3934    0.0000 O   0  0  0  0  0  0  0  0  0  0  0  0
   20.4380  -17.1032    0.0000 S   0  0  0  0  0  0  0  0  0  0  0  0
   20.8465  -16.3909    0.0000 O   0  0  0  0  0  0  0  0  0  0  0  0
   23.9792  -17.5036    0.0000 N   0  0  0  0  0  0  0  0  0  0  0  0
   23.9792  -18.3208    0.0000 C   0  0  0  0  0  0  0  0  0  0  0  0
   24.6845  -18.7252    0.0000 C   0  0  0  0  0  0  0  0  0  0  0  0
   25.3898  -18.3208    0.0000 N   0  0  0  0  0  0  0  0  0  0  0  0
   25.3898  -17.5036    0.0000 C   0  0  0  0  0  0  0  0  0  0  0  0
   24.6845  -17.0909    0.0000 C   0  0  0  0  0  0  0  0  0  0  0  0
   26.0969  -18.7304    0.0000 C   0  0  0  0  0  0  0  0  0  0  0  0
   26.0957  -19.5476    0.0000 O   0  0  0  0  0  0  0  0  0  0  0  0
   26.8052  -18.3228    0.0000 C   0  0  0  0  0  0  0  0  0  0  0  0
   27.5123  -18.7324    0.0000 C   0  0  0  0  0  0  0  0  0  0  0  0
   28.2206  -18.3249    0.0000 N   0  0  0  0  0  0  0  0  0  0  0  0
   23.2703  -17.0971    0.0000 C   0  0  0  0  0  0  0  0  0  0  0  0
   23.2679  -16.2799    0.0000 O   0  0  0  0  0  0  0  0  0  0  0  0
   22.5638  -17.5077    0.0000 C   0  0  0  0  0  0  0  0  0  0  0  0
   21.8549  -17.1012    0.0000 C   0  0  0  0  0  0  0  0  0  0  0  0
   21.1484  -17.5119    0.0000 N   0  0  0  0  0  0  0  0  0  0  0  0
   19.7330  -17.5160    0.0000 C   0  0  0  0  0  0  0  0  0  0  0  0
   29.6360  -18.3269    0.0000 C   0  0  0  0  0  0  0  0  0  0  0  0
   19.0238  -17.1083    0.0000 C   0  0  0  0  0  0  0  0  0  0  0  0
   18.3192  -17.5204    0.0000 C   0  0  0  0  0  0  0  0  0  0  0  0
   18.3237  -18.3383    0.0000 C   0  0  0  0  0  0  0  0  0  0  0  0
   19.0387  -18.7423    0.0000 C   0  0  0  0  0  0  0  0  0  0  0  0
   19.7403  -18.3279    0.0000 C   0  0  0  0  0  0  0  0  0  0  0  0
   30.3408  -18.7447    0.0000 C   0  0  0  0  0  0  0  0  0  0  0  0
   31.0527  -18.3388    0.0000 C   0  0  0  0  0  0  0  0  0  0  0  0
   31.0572  -17.5177    0.0000 C   0  0  0  0  0  0  0  0  0  0  0  0
   30.3440  -17.1042    0.0000 C   0  0  0  0  0  0  0  0  0  0  0  0
   29.6350  -17.5124    0.0000 C   0  0  0  0  0  0  0  0  0  0  0  0
   17.6190  -18.7521    0.0000 O   0  0  0  0  0  0  0  0  0  0  0  0
   31.7664  -17.1117    0.0000 O   0  0  0  0  0  0  0  0  0  0  0  0
   16.9083  -18.3487    0.0000 C   0  0  0  0  0  0  0  0  0  0  0  0
   31.7694  -16.2945    0.0000 C   0  0  0  0  0  0  0  0  0  0  0  0
  2  1  2  0
  3  2  2  0
  5  4  2  0
  6  5  2  0
  7  8  1  0
  7 12  1  0
  8  9  1  0
  9 10  1  0
 10 11  1  0
 11 12  1  0
 10 13  1  0
 13 14  2  0
 13 15  1  0
 15 16  1  0
 16 17  1  0
  7 18  1  0
 18 19  2  0
 18 20  1  0
 20 21  1  0
 21 22  1  0
 22  5  1  0
 17  2  1  0
  5 23  1  0
  2 24  1  0
 23 25  2  0
 25 26  1  0
 26 27  2  0
 27 28  1  0
 28 29  2  0
 29 23  1  0
 24 30  2  0
 30 31  1  0
 31 32  2  0
 32 33  1  0
 33 34  2  0
 34 24  1  0
 27 35  1  0
 32 36  1  0
 35 37  1  0
 36 38  1  0
M  END
> <chembl_id>
CHEMBL4105631

> <chembl_pref_name>
None

$$$$
CHEMBL1299566
     RDKit          2D

 26 29  0  0  0  0  0  0  0  0999 V2000
   -2.3695   -0.5706    0.0000 S   0  0  0  0  0  0  0  0  0  0  0  0
   -3.7044   -2.3654    0.0000 O   0  0  0  0  0  0  0  0  0  0  0  0
   -5.1564   -0.3406    0.0000 O   0  0  0  0  0  0  0  0  0  0  0  0
   -1.1651    2.3026    0.0000 O   0  0  0  0  0  0  0  0  0  0  0  0
   -3.2955    1.7214    0.0000 O   0  0  0  0  0  0  0  0  0  0  0  0
    0.0460    4.1491    0.0000 O   0  0  0  0  0  0  0  0  0  0  0  0
    0.4875    2.7901    0.0000 O   0  0  0  0  0  0  0  0  0  0  0  0
   -3.4494    0.2140    0.0000 N   0  0  0  0  0  0  0  0  0  0  0  0
   -2.1395    0.8815    0.0000 N   0  0  0  0  0  0  0  0  0  0  0  0
   -0.1256    3.3422    0.0000 N   0  0  0  0  0  0  0  0  0  0  0  0
   -3.0369   -1.0555    0.0000 C   0  0  0  0  0  0  0  0  0  0  0  0
   -3.7044   -0.5706    0.0000 C   0  0  0  0  0  0  0  0  0  0  0  0
   -2.6244    0.2140    0.0000 C   0  0  0  0  0  0  0  0  0  0  0  0
   -3.0369   -1.8805    0.0000 C   0  0  0  0  0  0  0  0  0  0  0  0
   -4.4890   -0.8255    0.0000 C   0  0  0  0  0  0  0  0  0  0  0  0
   -2.4751    1.6352    0.0000 C   0  0  0  0  0  0  0  0  0  0  0  0
   -1.9901    2.3026    0.0000 C   0  0  0  0  0  0  0  0  0  0  0  0
   -2.3695   -2.3654    0.0000 C   0  0  0  0  0  0  0  0  0  0  0  0
   -4.7439   -1.6101    0.0000 C   0  0  0  0  0  0  0  0  0  0  0  0
   -0.9102    3.0872    0.0000 C   0  0  0  0  0  0  0  0  0  0  0  0
   -2.2451    3.0872    0.0000 C   0  0  0  0  0  0  0  0  0  0  0  0
   -1.5776    3.5721    0.0000 C   0  0  0  0  0  0  0  0  0  0  0  0
   -3.4494   -3.1500    0.0000 C   0  0  0  0  0  0  0  0  0  0  0  0
   -2.6244   -3.1500    0.0000 C   0  0  0  0  0  0  0  0  0  0  0  0
   -5.8239   -0.8255    0.0000 C   0  0  0  0  0  0  0  0  0  0  0  0
   -5.5689   -1.6101    0.0000 C   0  0  0  0  0  0  0  0  0  0  0  0
  1 11  1  0
  1 13  1  0
  2 14  1  0
  2 23  1  0
  3 15  1  0
  3 25  1  0
  4 17  1  0
  4 20  1  0
  5 16  2  0
  6 10  1  0
  7 10  2  0
  8 12  1  0
  8 13  2  0
  9 13  1  0
  9 16  1  0
 10 20  1  0
 11 12  2  0
 11 14  1  0
 12 15  1  0
 14 18  2  0
 15 19  2  0
 16 17  1  0
 17 21  2  0
 18 24  1  0
 19 26  1  0
 20 22  2  0
 21 22  1  0
 23 24  2  0
 25 26  2  0
M  CHG  2   6  -1  10   1
M  END
> <chembl_id>
CHEMBL1299566

> <chembl_pref_name>
None

$$$$
CHEMBL5181347
     RDKit          2D

 33 36  0  0  0  0  0  0  0  0999 V2000
   -3.9279   -0.2062    0.0000 C   0  0  0  0  0  0  0  0  0  0  0  0
   -3.2133    0.2060    0.0000 C   0  0  0  0  0  0  0  0  0  0  0  0
   -2.5015   -0.2057    0.0000 C   0  0  0  0  0  0  0  0  0  0  0  0
   -2.5015   -1.0310    0.0000 C   0  0  0  0  0  0  0  0  0  0  0  0
   -3.2115   -1.4428    0.0000 C   0  0  0  0  0  0  0  0  0  0  0  0
   -3.9279   -1.0347    0.0000 C   0  0  0  0  0  0  0  0  0  0  0  0
   -1.7888    0.2050    0.0000 C   0  0  0  0  0  0  0  0  0  0  0  0
   -1.0738   -0.2074    0.0000 C   0  0  0  0  0  0  0  0  0  0  0  0
   -1.0720   -1.0285    0.0000 C   0  0  0  0  0  0  0  0  0  0  0  0
   -1.7837   -1.4451    0.0000 N   0  0  0  0  0  0  0  0  0  0  0  0
   -0.3573   -1.4410    0.0000 C   0  0  0  0  0  0  0  0  0  0  0  0
    0.3573   -1.0286    0.0000 C   0  0  0  0  0  0  0  0  0  0  0  0
    1.0694   -1.4406    0.0000 C   0  0  0  0  0  0  0  0  0  0  0  0
    1.0694   -2.2660    0.0000 C   0  0  0  0  0  0  0  0  0  0  0  0
    0.3591   -2.6780    0.0000 C   0  0  0  0  0  0  0  0  0  0  0  0
   -0.3573   -2.2697    0.0000 C   0  0  0  0  0  0  0  0  0  0  0  0
   -1.7888    1.0302    0.0000 O   0  0  0  0  0  0  0  0  0  0  0  0
    1.7841   -2.6786    0.0000 O   0  0  0  0  0  0  0  0  0  0  0  0
    2.4987   -2.2660    0.0000 C   0  0  0  0  0  0  0  0  0  0  0  0
    3.2133   -2.6786    0.0000 C   0  0  0  0  0  0  0  0  0  0  0  0
    3.9280   -2.2660    0.0000 C   0  0  0  0  0  0  0  0  0  0  0  0
   -1.0741    1.4428    0.0000 C   0  0  0  0  0  0  0  0  0  0  0  0
   -0.3594    1.0302    0.0000 C   0  0  0  0  0  0  0  0  0  0  0  0
    0.3550    1.4428    0.0000 N   0  0  0  0  0  0  0  0  0  0  0  0
   -3.2133    1.0312    0.0000 O   0  0  0  0  0  0  0  0  0  0  0  0
   -3.9280    1.4438    0.0000 C   0  0  0  0  0  0  0  0  0  0  0  0
   -3.2115   -2.2679    0.0000 O   0  0  0  0  0  0  0  0  0  0  0  0
   -2.4969   -2.6805    0.0000 C   0  0  0  0  0  0  0  0  0  0  0  0
    0.3550    2.2679    0.0000 C   0  0  0  0  0  0  0  0  0  0  0  0
    1.0697    2.6805    0.0000 C   0  0  0  0  0  0  0  0  0  0  0  0
    1.7843    2.2679    0.0000 C   0  0  0  0  0  0  0  0  0  0  0  0
    1.7844    1.4428    0.0000 C   0  0  0  0  0  0  0  0  0  0  0  0
    1.0697    1.0302    0.0000 C   0  0  0  0  0  0  0  0  0  0  0  0
  2  1  2  0
  3  2  1  0
  4  3  2  0
  5  4  1  0
  1  6  1  0
  6  5  2  0
  3  7  1  0
  8  7  2  0
  9  8  1  0
 10  9  2  0
  4 10  1  0
 11  9  1  0
 12 11  2  0
 13 12  1  0
 14 13  2  0
 15 14  1  0
 11 16  1  0
 16 15  2  0
  7 17  1  0
 14 18  1  0
 18 19  1  0
 19 20  1  0
 20 21  1  0
 17 22  1  0
 22 23  1  0
 23 24  1  0
  2 25  1  0
 25 26  1  0
  5 27  1  0
 27 28  1  0
 29 24  1  0
 30 29  1  0
 31 30  1  0
 32 31  1  0
 33 32  1  0
 24 33  1  0
M  END
> <chembl_id>
CHEMBL5181347

> <chembl_pref_name>
None

$$$$
CHEMBL82440
     RDKit          2D

 14 15  0  0  0  0  0  0  0  0999 V2000
    6.4167   -4.0417    0.0000 C   0  0  0  0  0  0  0  0  0  0  0  0
    5.6292   -4.3000    0.0000 C   0  0  0  0  0  0  0  0  0  0  0  0
    6.4167   -5.3792    0.0000 N   0  0  0  0  0  0  0  0  0  0  0  0
    6.9000   -4.7167    0.0000 C   0  0  0  0  0  0  0  0  0  0  0  0
    5.6292   -5.1250    0.0000 C   0  0  0  0  0  0  0  0  0  0  0  0
    6.6667   -3.2542    0.0000 C   0  0  0  0  0  0  0  0  0  0  0  0
    7.4750   -3.0792    0.0000 C   0  0  0  0  0  0  0  0  0  0  0  0
    4.9167   -3.8875    0.0000 C   0  0  0  0  0  0  0  0  0  0  0  0
    7.7292   -2.3000    0.0000 O   0  0  0  0  0  0  0  0  0  0  0  0
    4.9167   -5.5375    0.0000 C   0  0  0  0  0  0  0  0  0  0  0  0
    4.2042   -4.3000    0.0000 C   0  0  0  0  0  0  0  0  0  0  0  0
    8.0292   -3.6917    0.0000 O   0  0  0  0  0  0  0  0  0  0  0  0
    4.2042   -5.1250    0.0000 C   0  0  0  0  0  0  0  0  0  0  0  0
    3.4917   -3.8875    0.0000 Br  0  0  0  0  0  0  0  0  0  0  0  0
  2  1  1  0
  3  4  1  0
  4  1  2  0
  5  2  1  0
  6  1  1  0
  7  6  1  0
  8  2  2  0
  9  7  2  0
 10  5  2  0
 11  8  1  0
 12  7  1  0
 13 11  2  0
 14 11  1  0
  5  3  1  0
 13 10  1  0
M  END
> <chembl_id>
CHEMBL82440

> <chembl_pref_name>
None

$$$$
CHEMBL3120358
     RDKit          2D

 21 23  0  0  0  0  0  0  0  0999 V2000
   19.9001   -3.1284    0.0000 C   0  0  0  0  0  0  0  0  0  0  0  0
   19.8989   -3.9479    0.0000 C   0  0  0  0  0  0  0  0  0  0  0  0
   20.6070   -4.3569    0.0000 C   0  0  0  0  0  0  0  0  0  0  0  0
   20.6052   -2.7195    0.0000 C   0  0  0  0  0  0  0  0  0  0  0  0
   21.3138   -3.1248    0.0000 C   0  0  0  0  0  0  0  0  0  0  0  0
   21.3141   -3.9480    0.0000 C   0  0  0  0  0  0  0  0  0  0  0  0
   22.0970   -4.2022    0.0000 N   0  0  0  0  0  0  0  0  0  0  0  0
   22.5807   -3.5360    0.0000 C   0  0  0  0  0  0  0  0  0  0  0  0
   22.0966   -2.8703    0.0000 C   0  0  0  0  0  0  0  0  0  0  0  0
   22.3489   -2.0930    0.0000 C   0  0  0  0  0  0  0  0  0  0  0  0
   23.1482   -1.9228    0.0000 C   0  0  0  0  0  0  0  0  0  0  0  0
   23.4005   -1.1455    0.0000 O   0  0  0  0  0  0  0  0  0  0  0  0
   23.6952   -2.5299    0.0000 O   0  0  0  0  0  0  0  0  0  0  0  0
   22.3498   -4.9793    0.0000 C   0  0  0  0  0  0  0  0  0  0  0  0
   21.8031   -5.5867    0.0000 C   0  0  0  0  0  0  0  0  0  0  0  0
   21.0056   -5.4156    0.0000 C   0  0  0  0  0  0  0  0  0  0  0  0
   20.4592   -6.0223    0.0000 C   0  0  0  0  0  0  0  0  0  0  0  0
   20.7118   -6.8004    0.0000 C   0  0  0  0  0  0  0  0  0  0  0  0
   21.5158   -6.9684    0.0000 C   0  0  0  0  0  0  0  0  0  0  0  0
   22.0587   -6.3604    0.0000 C   0  0  0  0  0  0  0  0  0  0  0  0
   19.6599   -5.8522    0.0000 C   0  0  0  0  0  0  0  0  0  0  0  0
  1  2  2  0
  2  3  1  0
  3  6  2  0
  5  4  2  0
  4  1  1  0
  5  6  1  0
  6  7  1  0
  7  8  1  0
  8  9  2  0
  9  5  1  0
  9 10  1  0
 10 11  1  0
 11 12  2  0
 11 13  1  0
  7 14  1  0
 14 15  1  0
 15 16  2  0
 16 17  1  0
 17 18  2  0
 18 19  1  0
 19 20  2  0
 20 15  1  0
 17 21  1  0
M  END
> <chembl_id>
CHEMBL3120358

> <chembl_pref_name>
None

$$$$
CHEMBL1089153
     RDKit          2D

 26 29  0  0  0  0  0  0  0  0999 V2000
   -4.8951  -14.7630    0.0000 C   0  0  0  0  0  0  0  0  0  0  0  0
   -4.8951  -15.5888    0.0000 C   0  0  0  0  0  0  0  0  0  0  0  0
   -4.1840  -15.9994    0.0000 C   0  0  0  0  0  0  0  0  0  0  0  0
   -3.4728  -15.5888    0.0000 C   0  0  0  0  0  0  0  0  0  0  0  0
   -3.4734  -14.7612    0.0000 C   0  0  0  0  0  0  0  0  0  0  0  0
   -4.1840  -14.3479    0.0000 C   0  0  0  0  0  0  0  0  0  0  0  0
   -2.7551  -16.0051    0.0000 N   0  0  0  0  0  0  0  0  0  0  0  0
   -2.0406  -15.5911    0.0000 C   0  0  0  0  0  0  0  0  0  0  0  0
   -1.3292  -16.0084    0.0000 C   0  0  0  0  0  0  0  0  0  0  0  0
   -0.6152  -15.5950    0.0000 C   0  0  0  0  0  0  0  0  0  0  0  0
   -0.6135  -14.7684    0.0000 C   0  0  0  0  0  0  0  0  0  0  0  0
   -1.3321  -14.3568    0.0000 C   0  0  0  0  0  0  0  0  0  0  0  0
   -1.3315  -16.8296    0.0000 C   0  0  0  0  0  0  0  0  0  0  0  0
   -2.0466  -17.2426    0.0000 O   0  0  0  0  0  0  0  0  0  0  0  0
   -0.6190  -17.2467    0.0000 N   0  0  0  0  0  0  0  0  0  0  0  0
   -4.1840  -16.8252    0.0000 O   0  0  0  0  0  0  0  0  0  0  0  0
   -4.8979  -17.2358    0.0000 C   0  0  0  0  0  0  0  0  0  0  0  0
   -2.7541  -14.3520    0.0000 C   0  0  0  0  0  0  0  0  0  0  0  0
   -2.0411  -14.7640    0.0000 C   0  0  0  0  0  0  0  0  0  0  0  0
   -2.7525  -13.5262    0.0000 O   0  0  0  0  0  0  0  0  0  0  0  0
    0.0961  -16.8336    0.0000 C   0  0  0  0  0  0  0  0  0  0  0  0
    0.8092  -17.2524    0.0000 C   0  0  0  0  0  0  0  0  0  0  0  0
    1.5238  -16.8401    0.0000 N   0  0  0  0  0  0  0  0  0  0  0  0
    1.5266  -16.0133    0.0000 C   0  0  0  0  0  0  0  0  0  0  0  0
    0.8085  -15.6008    0.0000 C   0  0  0  0  0  0  0  0  0  0  0  0
    0.0972  -16.0112    0.0000 C   0  0  0  0  0  0  0  0  0  0  0  0
 19  8  2  0
  5  6  1  0
  9 13  1  0
 13 14  2  0
  4  7  1  0
 13 15  1  0
  1  2  1  0
  3 16  1  0
  7  8  1  0
 16 17  1  0
  1  6  2  0
  5 18  1  0
  8  9  1  0
 18 19  1  0
  2  3  2  0
 18 20  2  0
  9 10  2  0
 15 21  1  0
  3  4  1  0
 21 22  2  0
 10 11  1  0
 22 23  1  0
  4  5  2  0
 23 24  2  0
 11 12  2  0
 24 25  1  0
 12 19  1  0
 25 26  2  0
 26 21  1  0
M  END
> <chembl_id>
CHEMBL1089153

> <chembl_pref_name>
None

$$$$
CHEMBL1253552
     RDKit          2D

 18 19  0  0  0  0  0  0  0  0999 V2000
    7.4355  -26.0279    0.0000 C   0  0  0  0  0  0  0  0  0  0  0  0
    6.5858  -26.0497    0.0000 C   0  0  0  0  0  0  0  0  0  0  0  0
    6.1091  -26.6985    0.0000 C   0  0  0  0  0  0  0  0  0  0  0  0
    7.9569  -26.6744    0.0000 C   0  0  0  0  0  0  0  0  0  0  0  0
    7.7683  -27.4728    0.0000 C   0  0  0  0  0  0  0  0  0  0  0  0
    6.9932  -27.8387    0.0000 C   0  0  0  0  0  0  0  0  0  0  0  0
    6.2858  -27.4890    0.0000 C   0  0  0  0  0  0  0  0  0  0  0  0
    6.2036  -25.3185    0.0000 O   0  0  0  0  0  0  0  0  0  0  0  0
    7.7815  -25.2788    0.0000 O   0  0  0  0  0  0  0  0  0  0  0  0
    6.9858  -28.6637    0.0000 C   0  0  0  0  0  0  0  0  0  0  0  0
    6.2675  -29.0699    0.0000 N   0  0  0  0  0  0  0  0  0  0  0  0
    5.5612  -28.6495    0.0000 C   0  0  0  0  0  0  0  0  0  0  0  0
    4.8452  -29.0520    0.0000 C   0  0  0  0  0  0  0  0  0  0  0  0
    4.8335  -29.8773    0.0000 O   0  0  0  0  0  0  0  0  0  0  0  0
    5.5441  -30.2986    0.0000 C   0  0  0  0  0  0  0  0  0  0  0  0
    6.2664  -29.8944    0.0000 C   0  0  0  0  0  0  0  0  0  0  0  0
    5.3017  -26.5290    0.0000 Br  0  0  0  0  0  0  0  0  0  0  0  0
    8.7614  -26.4917    0.0000 Br  0  0  0  0  0  0  0  0  0  0  0  0
  1  2  1  0
  1  9  1  0
  2  3  1  0
  1  4  2  0
  6 10  1  0
  5  6  2  0
 10 11  1  0
 11 12  1  0
  6  7  1  0
  7  3  2  0
  4  5  1  0
  2  8  2  0
 11 16  1  0
 12 13  1  0
 13 14  1  0
 14 15  1  0
 15 16  1  0
  3 17  1  0
  4 18  1  0
M  END
> <chembl_id>
CHEMBL1253552

> <chembl_pref_name>
None

$$$$
CHEMBL53307
     RDKit          2D

 19 21  0  0  0  0  0  0  0  0999 V2000
    1.7000   -5.2750    0.0000 N   0  0  0  0  0  0  0  0  0  0  0  0
    2.2250   -4.9667    0.0000 C   0  0  0  0  0  0  0  0  0  0  0  0
    2.2167   -4.3667    0.0000 C   0  0  0  0  0  0  0  0  0  0  0  0
    1.1792   -4.9750    0.0000 C   0  0  0  0  0  0  0  0  0  0  0  0
    1.1792   -4.3750    0.0000 N   0  0  0  0  0  0  0  0  0  0  0  0
    1.7000   -4.0667    0.0000 C   0  0  0  0  0  0  0  0  0  0  0  0
    2.7917   -4.1792    0.0000 N   0  0  0  0  0  0  0  0  0  0  0  0
    2.8000   -5.1542    0.0000 N   0  0  0  0  0  0  0  0  0  0  0  0
    3.1500   -4.6625    0.0000 C   0  0  0  0  0  0  0  0  0  0  0  0
    0.6625   -5.2750    0.0000 N   0  0  0  0  0  0  0  0  0  0  0  0
    0.1417   -4.9750    0.0000 C   0  0  0  0  0  0  0  0  0  0  0  0
    1.6917   -3.4667    0.0000 O   0  0  0  0  0  0  0  0  0  0  0  0
    0.1417   -4.3750    0.0000 C   0  0  0  0  0  0  0  0  0  0  0  0
   -0.3708   -5.2750    0.0000 C   0  0  0  0  0  0  0  0  0  0  0  0
   -0.8958   -4.9750    0.0000 C   0  0  0  0  0  0  0  0  0  0  0  0
   -0.3708   -4.0667    0.0000 C   0  0  0  0  0  0  0  0  0  0  0  0
   -0.8958   -4.3667    0.0000 C   0  0  0  0  0  0  0  0  0  0  0  0
   -0.3708   -3.4667    0.0000 Cl  0  0  0  0  0  0  0  0  0  0  0  0
   -1.4125   -5.2667    0.0000 Cl  0  0  0  0  0  0  0  0  0  0  0  0
  2  1  1  0
  3  2  1  0
  4  1  2  0
  5  4  1  0
  6  5  1  0
  7  3  1  0
  8  2  2  0
  9  8  1  0
 10  4  1  0
 11 10  1  0
 12  6  1  0
 13 11  2  0
 14 11  1  0
 15 14  2  0
 16 13  1  0
 17 15  1  0
 18 16  1  0
 19 15  1  0
  6  3  2  0
  7  9  2  0
 17 16  2  0
M  END
> <chembl_id>
CHEMBL53307

> <chembl_pref_name>
None

$$$$
CHEMBL3092124
     RDKit          2D

 33 37  0  0  0  0  0  0  0  0999 V2000
   23.6578  -12.1963    0.0000 C   0  0  0  0  0  0  0  0  0  0  0  0
   23.6566  -13.0237    0.0000 C   0  0  0  0  0  0  0  0  0  0  0  0
   24.3715  -13.4366    0.0000 C   0  0  0  0  0  0  0  0  0  0  0  0
   24.3697  -11.7835    0.0000 C   0  0  0  0  0  0  0  0  0  0  0  0
   22.9418  -13.4356    0.0000 F   0  0  0  0  0  0  0  0  0  0  0  0
   22.9432  -11.7839    0.0000 C   0  0  0  0  0  0  0  0  0  0  0  0
   25.0851  -12.1927    0.0000 C   0  0  0  0  0  0  0  0  0  0  0  0
   25.0899  -13.0237    0.0000 C   0  0  0  0  0  0  0  0  0  0  0  0
   25.8820  -13.2756    0.0000 N   0  0  0  0  0  0  0  0  0  0  0  0
   26.3665  -12.6006    0.0000 C   0  0  0  0  0  0  0  0  0  0  0  0
   25.8740  -11.9313    0.0000 C   0  0  0  0  0  0  0  0  0  0  0  0
   27.1915  -12.5958    0.0000 C   0  0  0  0  0  0  0  0  0  0  0  0
   27.6083  -13.3079    0.0000 O   0  0  0  0  0  0  0  0  0  0  0  0
   27.5998  -11.8789    0.0000 O   0  0  0  0  0  0  0  0  0  0  0  0
   26.3006  -13.9864    0.0000 C   0  0  0  0  0  0  0  0  0  0  0  0
   25.8943  -14.7044    0.0000 C   0  0  0  0  0  0  0  0  0  0  0  0
   25.8762  -11.1104    0.0000 C   0  0  0  0  0  0  0  0  0  0  0  0
   26.5937  -10.7008    0.0000 C   0  0  0  0  0  0  0  0  0  0  0  0
   26.5965   -9.8765    0.0000 N   0  0  0  0  0  0  0  0  0  0  0  0
   25.8829   -9.4609    0.0000 C   0  0  0  0  0  0  0  0  0  0  0  0
   25.1646   -9.8756    0.0000 C   0  0  0  0  0  0  0  0  0  0  0  0
   25.1652  -10.6986    0.0000 C   0  0  0  0  0  0  0  0  0  0  0  0
   27.3065  -11.1162    0.0000 O   0  0  0  0  0  0  0  0  0  0  0  0
   25.0722  -14.7086    0.0000 C   0  0  0  0  0  0  0  0  0  0  0  0
   25.9139  -16.1278    0.0000 N   0  0  0  0  0  0  0  0  0  0  0  0
   26.3164  -15.4100    0.0000 C   0  0  0  0  0  0  0  0  0  0  0  0
   25.0847  -16.1377    0.0000 C   0  0  0  0  0  0  0  0  0  0  0  0
   24.6677  -15.4270    0.0000 C   0  0  0  0  0  0  0  0  0  0  0  0
   23.8456  -15.4338    0.0000 C   0  0  0  0  0  0  0  0  0  0  0  0
   23.4396  -16.1505    0.0000 C   0  0  0  0  0  0  0  0  0  0  0  0
   23.8617  -16.8617    0.0000 C   0  0  0  0  0  0  0  0  0  0  0  0
   24.6823  -16.8514    0.0000 C   0  0  0  0  0  0  0  0  0  0  0  0
   27.1413  -15.3984    0.0000 Cl  0  0  0  0  0  0  0  0  0  0  0  0
  1  2  2  0
  2  3  1  0
  3  8  2  0
  7  4  2  0
  4  1  1  0
  2  5  1  0
  1  6  1  0
  7  8  1  0
  8  9  1  0
  9 10  1  0
 10 11  2  0
 11  7  1  0
 10 12  1  0
 12 13  2  0
 12 14  1  0
  9 15  1  0
 15 16  1  0
 17 18  1  0
 18 19  1  0
 19 20  1  0
 20 21  2  0
 21 22  1  0
 22 17  2  0
 11 17  1  0
 18 23  2  0
 16 24  2  0
 24 28  1  0
 27 25  1  0
 25 26  2  0
 26 16  1  0
 27 28  1  0
 28 29  2  0
 29 30  1  0
 30 31  2  0
 31 32  1  0
 32 27  2  0
 26 33  1  0
M  END
> <chembl_id>
CHEMBL3092124

> <chembl_pref_name>
None

$$$$
CHEMBL1605743
     RDKit          2D

 22 25  0  0  0  0  0  0  0  0999 V2000
   -0.0004   -2.0326    0.0000 O   0  0  0  0  0  0  0  0  0  0  0  0
    2.8575   -2.0326    0.0000 O   0  0  0  0  0  0  0  0  0  0  0  0
   -2.8583   -2.0326    0.0000 O   0  0  0  0  0  0  0  0  0  0  0  0
   -0.0004   -0.3826    0.0000 C   0  0  0  0  0  0  0  0  0  0  0  0
    0.7141   -0.7951    0.0000 C   0  0  0  0  0  0  0  0  0  0  0  0
   -0.7149   -0.7951    0.0000 C   0  0  0  0  0  0  0  0  0  0  0  0
    0.7141   -1.6201    0.0000 C   0  0  0  0  0  0  0  0  0  0  0  0
   -0.7149   -1.6201    0.0000 C   0  0  0  0  0  0  0  0  0  0  0  0
   -0.0004    0.4424    0.0000 C   0  0  0  0  0  0  0  0  0  0  0  0
    1.4285   -0.3826    0.0000 C   0  0  0  0  0  0  0  0  0  0  0  0
   -1.4293   -0.3826    0.0000 C   0  0  0  0  0  0  0  0  0  0  0  0
    1.4285   -2.0326    0.0000 C   0  0  0  0  0  0  0  0  0  0  0  0
   -1.4293   -2.0326    0.0000 C   0  0  0  0  0  0  0  0  0  0  0  0
    2.1430   -1.6201    0.0000 C   0  0  0  0  0  0  0  0  0  0  0  0
   -2.1438   -1.6201    0.0000 C   0  0  0  0  0  0  0  0  0  0  0  0
    2.1430   -0.7951    0.0000 C   0  0  0  0  0  0  0  0  0  0  0  0
   -2.1438   -0.7951    0.0000 C   0  0  0  0  0  0  0  0  0  0  0  0
   -0.7149    0.8549    0.0000 C   0  0  0  0  0  0  0  0  0  0  0  0
    0.7141    0.8549    0.0000 C   0  0  0  0  0  0  0  0  0  0  0  0
   -0.7149    1.6799    0.0000 C   0  0  0  0  0  0  0  0  0  0  0  0
    0.7141    1.6799    0.0000 C   0  0  0  0  0  0  0  0  0  0  0  0
   -0.0004    2.0924    0.0000 C   0  0  0  0  0  0  0  0  0  0  0  0
  1  7  1  0
  1  8  1  0
  2 14  1  0
  3 15  2  0
  4  5  1  0
  4  6  2  0
  4  9  1  0
  5  7  1  0
  5 10  2  0
  6  8  1  0
  6 11  1  0
  7 12  2  0
  8 13  2  0
  9 18  2  0
  9 19  1  0
 10 16  1  0
 11 17  2  0
 12 14  1  0
 13 15  1  0
 14 16  2  0
 15 17  1  0
 18 20  1  0
 19 21  2  0
 20 22  2  0
 21 22  1  0
M  END
> <chembl_id>
CHEMBL1605743

> <chembl_pref_name>
None

$$$$
CHEMBL486626
     RDKit          2D

 31 34  0  0  0  0  0  0  0  0999 V2000
   -0.2140    0.2677    0.0000 C   0  0  0  0  0  0  0  0  0  0  0  0
   -0.2140   -0.5573    0.0000 C   0  0  0  0  0  0  0  0  0  0  0  0
   -0.9299   -0.9698    0.0000 C   0  0  0  0  0  0  0  0  0  0  0  0
   -1.6458   -0.5573    0.0000 C   0  0  0  0  0  0  0  0  0  0  0  0
   -2.3575   -0.9698    0.0000 C   0  0  0  0  0  0  0  0  0  0  0  0
   -3.0733   -0.5573    0.0000 C   0  0  0  0  0  0  0  0  0  0  0  0
   -3.0733    0.2677    0.0000 C   0  0  0  0  0  0  0  0  0  0  0  0
   -2.3575    0.6802    0.0000 C   0  0  0  0  0  0  0  0  0  0  0  0
   -1.6458    0.2677    0.0000 C   0  0  0  0  0  0  0  0  0  0  0  0
   -0.9299    0.6802    0.0000 O   0  0  0  0  0  0  0  0  0  0  0  0
   -0.9299   -1.7948    0.0000 O   0  0  0  0  0  0  0  0  0  0  0  0
    0.4977   -0.9698    0.0000 C   0  0  0  0  0  0  0  0  0  0  0  0
    1.2135   -0.5573    0.0000 C   0  0  0  0  0  0  0  0  0  0  0  0
    1.9294   -0.9698    0.0000 C   0  0  0  0  0  0  0  0  0  0  0  0
    1.9294   -1.7948    0.0000 C   0  0  0  0  0  0  0  0  0  0  0  0
    1.2135   -2.2073    0.0000 C   0  0  0  0  0  0  0  0  0  0  0  0
    0.4977   -1.7948    0.0000 C   0  0  0  0  0  0  0  0  0  0  0  0
    2.6453   -2.2073    0.0000 O   0  0  0  0  0  0  0  0  0  0  0  0
    3.3570   -1.7948    0.0000 C   0  0  0  0  0  0  0  0  0  0  0  0
    3.3570   -0.9698    0.0000 C   0  0  0  0  0  0  0  0  0  0  0  0
    4.0728   -0.5573    0.0000 C   0  0  0  0  0  0  0  0  0  0  0  0
    4.7845   -0.9698    0.0000 C   0  0  0  0  0  0  0  0  0  0  0  0
    4.7845   -1.7948    0.0000 C   0  0  0  0  0  0  0  0  0  0  0  0
    4.0728   -2.2073    0.0000 O   0  0  0  0  0  0  0  0  0  0  0  0
    5.5004   -2.2073    0.0000 C   0  0  0  0  0  0  0  0  0  0  0  0
    6.2163   -1.7948    0.0000 O   0  0  0  0  0  0  0  0  0  0  0  0
    5.5004   -0.5573    0.0000 O   0  0  0  0  0  0  0  0  0  0  0  0
    4.0728    0.2677    0.0000 O   0  0  0  0  0  0  0  0  0  0  0  0
    2.6453   -0.5573    0.0000 O   0  0  0  0  0  0  0  0  0  0  0  0
   -3.7892    0.6802    0.0000 O   0  0  0  0  0  0  0  0  0  0  0  0
   -2.3575   -1.7948    0.0000 O   0  0  0  0  0  0  0  0  0  0  0  0
  1  2  2  0
  2  3  1  0
  3  4  1  0
  4  5  1  0
  5  6  2  0
  6  7  1  0
  7  8  2  0
  8  9  1  0
  4  9  2  0
  9 10  1  0
  1 10  1  0
  3 11  2  0
 12 13  1  0
 13 14  2  0
 14 15  1  0
 15 16  2  0
 16 17  1  0
 12 17  2  0
 19 20  1  0
 20 21  1  0
 21 22  1  0
 22 23  1  0
 23 24  1  0
 19 24  1  0
 25 26  1  0
 23 25  1  1
 22 27  1  6
 21 28  1  1
 20 29  1  6
 19 18  1  1
 15 18  1  0
  2 12  1  0
  7 30  1  0
  5 31  1  0
M  END
> <chembl_id>
CHEMBL486626

> <chembl_pref_name>
SOPHORICOSIDE

$$$$
CHEMBL1414563
     RDKit          2D

 30 33  0  0  0  0  0  0  0  0999 V2000
   -1.5032    0.8610    0.0000 S   0  0  0  0  0  0  0  0  0  0  0  0
   -2.2177   -2.0265    0.0000 F   0  0  0  0  0  0  0  0  0  0  0  0
   -0.0743   -1.6140    0.0000 O   0  0  0  0  0  0  0  0  0  0  0  0
    0.6402    2.0985    0.0000 O   0  0  0  0  0  0  0  0  0  0  0  0
    3.4981    0.4485    0.0000 O   0  0  0  0  0  0  0  0  0  0  0  0
   -0.7888   -0.3765    0.0000 N   0  0  0  0  0  0  0  0  0  0  0  0
   -2.2177   -0.3765    0.0000 N   0  0  0  0  0  0  0  0  0  0  0  0
   -0.0743    2.5110    0.0000 N   0  0  0  0  0  0  0  0  0  0  0  0
   -0.7888    0.4485    0.0000 C   0  0  0  0  0  0  0  0  0  0  0  0
    0.6402    0.4485    0.0000 C   0  0  0  0  0  0  0  0  0  0  0  0
   -0.0743    0.8610    0.0000 C   0  0  0  0  0  0  0  0  0  0  0  0
   -0.0743   -0.7890    0.0000 C   0  0  0  0  0  0  0  0  0  0  0  0
    1.3546    0.8610    0.0000 C   0  0  0  0  0  0  0  0  0  0  0  0
    0.6402   -0.3765    0.0000 C   0  0  0  0  0  0  0  0  0  0  0  0
   -1.5032   -0.7890    0.0000 C   0  0  0  0  0  0  0  0  0  0  0  0
    1.3546    1.6860    0.0000 C   0  0  0  0  0  0  0  0  0  0  0  0
   -2.9322   -0.7890    0.0000 C   0  0  0  0  0  0  0  0  0  0  0  0
   -2.2177    0.4485    0.0000 C   0  0  0  0  0  0  0  0  0  0  0  0
   -0.0743    1.6860    0.0000 C   0  0  0  0  0  0  0  0  0  0  0  0
    2.0691    0.4485    0.0000 C   0  0  0  0  0  0  0  0  0  0  0  0
    2.7836    0.8610    0.0000 C   0  0  0  0  0  0  0  0  0  0  0  0
   -2.9322   -1.6140    0.0000 C   0  0  0  0  0  0  0  0  0  0  0  0
    2.0691    2.0985    0.0000 C   0  0  0  0  0  0  0  0  0  0  0  0
   -3.6467   -0.3765    0.0000 C   0  0  0  0  0  0  0  0  0  0  0  0
    2.7836    1.6860    0.0000 C   0  0  0  0  0  0  0  0  0  0  0  0
   -3.6467   -2.0265    0.0000 C   0  0  0  0  0  0  0  0  0  0  0  0
   -4.3611   -0.7890    0.0000 C   0  0  0  0  0  0  0  0  0  0  0  0
   -4.3611   -1.6140    0.0000 C   0  0  0  0  0  0  0  0  0  0  0  0
    0.6402    2.9235    0.0000 C   0  0  0  0  0  0  0  0  0  0  0  0
    4.2125    0.8610    0.0000 C   0  0  0  0  0  0  0  0  0  0  0  0
  1  9  1  0
  1 18  1  0
  2 22  1  0
  3 12  2  0
  4 16  1  0
  4 29  1  0
  5 21  1  0
  5 30  1  0
  6  9  1  0
  6 12  1  0
  6 15  1  0
  7 15  1  0
  7 17  1  0
  7 18  1  0
  8 19  3  0
  9 11  2  0
 10 11  1  0
 10 13  1  0
 10 14  1  0
 11 19  1  0
 12 14  1  0
 13 16  1  0
 13 20  2  0
 16 23  2  0
 17 22  1  0
 17 24  2  0
 20 21  1  0
 21 25  2  0
 22 26  2  0
 23 25  1  0
 24 27  1  0
 26 28  1  0
 27 28  2  0
M  END
> <chembl_id>
CHEMBL1414563

> <chembl_pref_name>
None

$$$$
CHEMBL492768
     RDKit          2D

 22 23  0  0  0  0  0  0  0  0999 V2000
    0.5404    0.9377    0.0000 C   0  0  0  0  0  0  0  0  0  0  0  0
   -0.1741    1.3502    0.0000 C   0  0  0  0  0  0  0  0  0  0  0  0
   -0.8886    0.9377    0.0000 C   0  0  0  0  0  0  0  0  0  0  0  0
   -0.8886    0.1127    0.0000 C   0  0  0  0  0  0  0  0  0  0  0  0
   -0.1741   -0.2998    0.0000 C   0  0  0  0  0  0  0  0  0  0  0  0
    0.5404    0.1127    0.0000 C   0  0  0  0  0  0  0  0  0  0  0  0
   -0.1741   -1.1248    0.0000 C   0  0  0  0  0  0  0  0  0  0  0  0
    0.5404   -1.5373    0.0000 C   0  0  0  0  0  0  0  0  0  0  0  0
   -0.8886   -1.5373    0.0000 O   0  0  0  0  0  0  0  0  0  0  0  0
    0.5404   -2.3623    0.0000 C   0  0  0  0  0  0  0  0  0  0  0  0
    1.2549   -2.7748    0.0000 C   0  0  0  0  0  0  0  0  0  0  0  0
   -0.1741   -2.7748    0.0000 O   0  0  0  0  0  0  0  0  0  0  0  0
    1.2549   -3.5998    0.0000 O   0  0  0  0  0  0  0  0  0  0  0  0
    1.9693   -2.3623    0.0000 O   0  0  0  0  0  0  0  0  0  0  0  0
   -0.1741    2.1752    0.0000 O   0  0  0  0  0  0  0  0  0  0  0  0
   -0.8886    2.5877    0.0000 C   0  0  0  0  0  0  0  0  0  0  0  0
   -0.8886    3.4127    0.0000 C   0  0  0  0  0  0  0  0  0  0  0  0
   -1.6030    3.8252    0.0000 C   0  0  0  0  0  0  0  0  0  0  0  0
   -1.6030    4.6502    0.0000 C   0  0  0  0  0  0  0  0  0  0  0  0
   -0.8886    5.0627    0.0000 C   0  0  0  0  0  0  0  0  0  0  0  0
   -0.1741    4.6502    0.0000 C   0  0  0  0  0  0  0  0  0  0  0  0
   -0.1741    3.8252    0.0000 C   0  0  0  0  0  0  0  0  0  0  0  0
 10 11  1  0
  5  6  2  0
 10 12  1  0
  6  1  1  0
 11 13  2  0
  1  2  2  0
 11 14  1  0
  5  7  1  0
  2 15  1  0
  3  4  2  0
 15 16  1  0
  7  8  1  0
 16 17  1  0
 17 18  2  0
  7  9  2  0
 18 19  1  0
  4  5  1  0
 19 20  2  0
  8 10  2  0
 20 21  1  0
  2  3  1  0
 21 22  2  0
 22 17  1  0
M  END
> <chembl_id>
CHEMBL492768

> <chembl_pref_name>
None

$$$$
CHEMBL52943
     RDKit          2D

 17 18  0  0  0  0  0  0  0  0999 V2000
    0.7917   -4.7125    0.0000 N   0  0  0  0  0  0  0  0  0  0  0  0
    0.2792   -3.8125    0.0000 N   0  0  0  0  0  0  0  0  0  0  0  0
    0.2792   -4.4125    0.0000 C   0  0  0  0  0  0  0  0  0  0  0  0
    1.3167   -4.4125    0.0000 C   0  0  0  0  0  0  0  0  0  0  0  0
    0.7917   -3.5042    0.0000 C   0  0  0  0  0  0  0  0  0  0  0  0
    1.3167   -3.8042    0.0000 C   0  0  0  0  0  0  0  0  0  0  0  0
    2.3542   -4.4042    0.0000 C   0  0  0  0  0  0  0  0  0  0  0  0
    1.8375   -4.7125    0.0000 N   0  0  0  0  0  0  0  0  0  0  0  0
    2.8750   -4.7042    0.0000 C   0  0  0  0  0  0  0  0  0  0  0  0
    2.3500   -3.8125    0.0000 C   0  0  0  0  0  0  0  0  0  0  0  0
    2.8667   -3.5042    0.0000 C   0  0  0  0  0  0  0  0  0  0  0  0
    3.3917   -4.4042    0.0000 C   0  0  0  0  0  0  0  0  0  0  0  0
    3.3917   -3.8042    0.0000 C   0  0  0  0  0  0  0  0  0  0  0  0
   -0.2458   -4.7125    0.0000 N   0  0  0  0  0  0  0  0  0  0  0  0
    0.7917   -2.9042    0.0000 Cl  0  0  0  0  0  0  0  0  0  0  0  0
    2.8625   -2.9042    0.0000 Cl  0  0  0  0  0  0  0  0  0  0  0  0
    3.9042   -4.7042    0.0000 Cl  0  0  0  0  0  0  0  0  0  0  0  0
  2  3  1  0
  3  1  2  0
  4  1  1  0
  5  6  1  0
  6  4  2  0
  7  8  1  0
  8  4  1  0
  9  7  2  0
 10  7  1  0
 11 10  2  0
 12  9  1  0
 13 11  1  0
 14  3  1  0
 15  5  1  0
 16 11  1  0
 17 12  1  0
  2  5  2  0
 13 12  2  0
M  END
> <chembl_id>
CHEMBL52943

> <chembl_pref_name>
None

$$$$
CHEMBL4078109
     RDKit          2D

 32 34  0  0  0  0  0  0  0  0999 V2000
   23.4055   -2.6621    0.0000 N   0  0  0  0  0  0  0  0  0  0  0  0
   23.4055   -3.4793    0.0000 C   0  0  0  0  0  0  0  0  0  0  0  0
   24.1108   -3.8837    0.0000 C   0  0  0  0  0  0  0  0  0  0  0  0
   24.8161   -3.4793    0.0000 N   0  0  0  0  0  0  0  0  0  0  0  0
   24.8161   -2.6621    0.0000 C   0  0  0  0  0  0  0  0  0  0  0  0
   24.1108   -2.2493    0.0000 C   0  0  0  0  0  0  0  0  0  0  0  0
   22.6966   -2.2555    0.0000 C   0  0  0  0  0  0  0  0  0  0  0  0
   21.9901   -2.6662    0.0000 C   0  0  0  0  0  0  0  0  0  0  0  0
   21.2812   -2.2597    0.0000 C   0  0  0  0  0  0  0  0  0  0  0  0
   20.5747   -2.6704    0.0000 N   0  0  0  0  0  0  0  0  0  0  0  0
   19.8658   -2.2638    0.0000 C   0  0  0  0  0  0  0  0  0  0  0  0
   19.1593   -2.6745    0.0000 C   0  0  0  0  0  0  0  0  0  0  0  0
   19.8634   -1.4466    0.0000 O   0  0  0  0  0  0  0  0  0  0  0  0
   25.5232   -3.8889    0.0000 C   0  0  0  0  0  0  0  0  0  0  0  0
   26.2315   -3.4813    0.0000 C   0  0  0  0  0  0  0  0  0  0  0  0
   26.9386   -3.8909    0.0000 C   0  0  0  0  0  0  0  0  0  0  0  0
   27.6469   -3.4834    0.0000 N   0  0  0  0  0  0  0  0  0  0  0  0
   28.3540   -3.8930    0.0000 C   0  0  0  0  0  0  0  0  0  0  0  0
   29.0623   -3.4854    0.0000 C   0  0  0  0  0  0  0  0  0  0  0  0
   28.3528   -4.7102    0.0000 O   0  0  0  0  0  0  0  0  0  0  0  0
   18.4512   -2.2645    0.0000 C   0  0  0  0  0  0  0  0  0  0  0  0
   17.7452   -2.6745    0.0000 C   0  0  0  0  0  0  0  0  0  0  0  0
   17.7471   -3.4925    0.0000 C   0  0  0  0  0  0  0  0  0  0  0  0
   18.4610   -3.8989    0.0000 C   0  0  0  0  0  0  0  0  0  0  0  0
   19.1641   -3.4866    0.0000 C   0  0  0  0  0  0  0  0  0  0  0  0
   29.7660   -3.8991    0.0000 C   0  0  0  0  0  0  0  0  0  0  0  0
   30.4738   -3.4922    0.0000 C   0  0  0  0  0  0  0  0  0  0  0  0
   30.4754   -2.6741    0.0000 C   0  0  0  0  0  0  0  0  0  0  0  0
   29.7633   -2.2647    0.0000 C   0  0  0  0  0  0  0  0  0  0  0  0
   29.0584   -2.6739    0.0000 C   0  0  0  0  0  0  0  0  0  0  0  0
   17.0412   -3.9042    0.0000 Cl  0  0  0  0  0  0  0  0  0  0  0  0
   31.1832   -2.2656    0.0000 Cl  0  0  0  0  0  0  0  0  0  0  0  0
  1  2  1  0
  1  6  1  0
  2  3  1  0
  3  4  1  0
  4  5  1  0
  5  6  1  0
  1  7  1  0
  7  8  1  0
  8  9  1  0
  9 10  1  0
 10 11  1  0
 11 12  1  0
 11 13  2  0
  4 14  1  0
 14 15  1  0
 15 16  1  0
 16 17  1  0
 17 18  1  0
 18 19  1  0
 18 20  2  0
 12 21  2  0
 21 22  1  0
 22 23  2  0
 23 24  1  0
 24 25  2  0
 25 12  1  0
 19 26  2  0
 26 27  1  0
 27 28  2  0
 28 29  1  0
 29 30  2  0
 30 19  1  0
 23 31  1  0
 28 32  1  0
M  END
> <chembl_id>
CHEMBL4078109

> <chembl_pref_name>
None

$$$$
CHEMBL2059079
     RDKit          2D

 42 46  0  0  0  0  0  0  0  0999 V2000
   -2.0033  -13.1318    0.0000 O   0  0  0  0  0  0  0  0  0  0  0  0
   -1.2838  -13.5414    0.0000 C   0  0  0  0  0  0  0  0  0  0  0  0
   -0.5743  -13.1223    0.0000 C   0  0  0  0  0  0  0  0  0  0  0  0
   -0.5801  -12.2977    0.0000 O   0  0  0  0  0  0  0  0  0  0  0  0
    0.1410  -13.5320    0.0000 C   0  0  0  0  0  0  0  0  0  0  0  0
    0.8505  -13.1129    0.0000 O   0  0  0  0  0  0  0  0  0  0  0  0
    0.1468  -14.3566    0.0000 C   0  0  0  0  0  0  0  0  0  0  0  0
    0.8630  -14.7609    0.0000 O   0  0  0  0  0  0  0  0  0  0  0  0
   -0.5627  -14.7715    0.0000 C   0  0  0  0  0  0  0  0  0  0  0  0
   -1.2780  -14.3660    0.0000 O   0  0  0  0  0  0  0  0  0  0  0  0
   -0.5560  -15.5949    0.0000 C   0  0  0  0  0  0  0  0  0  0  0  0
   -1.2696  -16.0098    0.0000 O   0  0  0  0  0  0  0  0  0  0  0  0
   -4.1147  -11.3604    0.0000 C   0  0  0  0  0  0  0  0  0  0  0  0
   -3.2818  -11.3722    0.0000 C   0  0  0  0  0  0  0  0  0  0  0  0
   -3.0444  -12.1581    0.0000 C   0  0  0  0  0  0  0  0  0  0  0  0
   -2.2472  -12.3450    0.0000 C   0  0  0  0  0  0  0  0  0  0  0  0
   -1.6831  -11.7422    0.0000 O   0  0  0  0  0  0  0  0  0  0  0  0
   -1.9227  -10.9521    0.0000 C   0  0  0  0  0  0  0  0  0  0  0  0
   -2.7284  -10.7648    0.0000 C   0  0  0  0  0  0  0  0  0  0  0  0
   -3.7174  -12.6377    0.0000 C   0  0  0  0  0  0  0  0  0  0  0  0
   -4.3830  -12.1476    0.0000 C   0  0  0  0  0  0  0  0  0  0  0  0
   -4.4770  -12.9678    0.0000 O   0  0  0  0  0  0  0  0  0  0  0  0
   -3.3062  -13.3533    0.0000 C   0  0  0  0  0  0  0  0  0  0  0  0
   -3.7225  -14.0677    0.0000 O   0  0  0  0  0  0  0  0  0  0  0  0
   -4.5927  -10.6860    0.0000 O   0  0  0  0  0  0  0  0  0  0  0  0
   -4.1860   -9.9636    0.0000 C   0  0  0  0  0  0  0  0  0  0  0  0
   -4.6105   -9.2497    0.0000 C   0  0  0  0  0  0  0  0  0  0  0  0
   -2.8840  -12.9674    0.0000 H   0  0  0  0  0  0  0  0  0  0  0  0
   -3.6106  -10.6121    0.0000 H   0  0  0  0  0  0  0  0  0  0  0  0
   -5.1857  -11.9644    0.0000 H   0  0  0  0  0  0  0  0  0  0  0  0
   -4.2072   -8.5300    0.0000 C   0  0  0  0  0  0  0  0  0  0  0  0
   -3.3611   -9.9539    0.0000 O   0  0  0  0  0  0  0  0  0  0  0  0
   -4.6288   -7.8209    0.0000 C   0  0  0  0  0  0  0  0  0  0  0  0
   -4.2224   -7.1018    0.0000 C   0  0  0  0  0  0  0  0  0  0  0  0
   -4.6433   -6.3932    0.0000 C   0  0  0  0  0  0  0  0  0  0  0  0
   -5.4691   -6.4034    0.0000 C   0  0  0  0  0  0  0  0  0  0  0  0
   -5.8722   -7.1281    0.0000 C   0  0  0  0  0  0  0  0  0  0  0  0
   -5.4489   -7.8338    0.0000 C   0  0  0  0  0  0  0  0  0  0  0  0
   -4.2397   -5.6737    0.0000 O   0  0  0  0  0  0  0  0  0  0  0  0
   -5.8917   -5.6948    0.0000 O   0  0  0  0  0  0  0  0  0  0  0  0
   -5.4894   -4.9746    0.0000 C   0  0  0  0  0  0  0  0  0  0  0  0
   -1.2917  -12.7125    0.0000 H   0  0  0  0  0  0  0  0  0  0  0  0
  2 10  1  0
 20 15  1  0
 14 13  1  0
 13 21  1  0
 14 15  1  0
 14 19  1  0
 15 16  1  0
 16 17  1  0
 17 18  1  0
 18 19  2  0
 21 20  1  0
 22 21  1  0
 20 22  1  0
 20 23  1  6
 23 24  1  0
 13 25  1  1
 25 26  1  0
 26 27  1  0
 16  1  1  1
 15 28  1  1
 14 29  1  1
 21 30  1  6
 27 31  2  0
  2  1  1  0
 26 32  2  0
  2  3  1  0
 31 33  1  0
  3  4  1  6
 33 34  2  0
  3  5  1  0
 34 35  1  0
  5  6  1  1
 35 36  2  0
  5  7  1  0
 36 37  1  0
  7  8  1  6
 37 38  2  0
 38 33  1  0
  7  9  1  0
 35 39  1  0
  9 10  1  0
 36 40  1  0
  9 11  1  1
 40 41  1  0
 11 12  1  0
  2 42  1  6
M  END
> <chembl_id>
CHEMBL2059079

> <chembl_pref_name>
MINECOSIDE

$$$$
CHEMBL1813565
     RDKit          2D

 61 66  0  0  0  0  0  0  0  0999 V2000
    9.8818   -7.3373    0.0000 C   0  0  0  0  0  0  0  0  0  0  0  0
   10.7146   -7.3373    0.0000 C   0  0  0  0  0  0  0  0  0  0  0  0
   10.2961   -6.6125    0.0000 C   0  0  0  0  0  0  0  0  0  0  0  0
   10.6819   -8.3815    0.0000 O   0  0  0  0  0  0  0  0  0  0  0  0
    9.8771   -8.1689    0.0000 S   0  0  0  0  0  0  0  0  0  0  0  0
   10.0917   -8.9732    0.0000 O   0  0  0  0  0  0  0  0  0  0  0  0
    7.0309   -4.8782    0.0000 O   0  0  0  0  0  0  0  0  0  0  0  0
    6.3176   -4.4608    0.0000 C   0  0  0  0  0  0  0  0  0  0  0  0
    4.8968   -3.6321    0.0000 N   0  0  0  0  0  0  0  0  0  0  0  0
    4.8992   -4.4617    0.0000 C   0  0  0  0  0  0  0  0  0  0  0  0
    5.6117   -4.8699    0.0000 C   0  0  0  0  0  0  0  0  0  0  0  0
    5.6149   -3.2197    0.0000 C   0  0  0  0  0  0  0  0  0  0  0  0
    6.3264   -3.6360    0.0000 C   0  0  0  0  0  0  0  0  0  0  0  0
    7.0324   -3.2270    0.0000 C   0  0  0  0  0  0  0  0  0  0  0  0
    7.0376   -2.4075    0.0000 C   0  0  0  0  0  0  0  0  0  0  0  0
    6.3245   -1.9936    0.0000 C   0  0  0  0  0  0  0  0  0  0  0  0
    5.6181   -2.4002    0.0000 C   0  0  0  0  0  0  0  0  0  0  0  0
    6.3222   -1.1693    0.0000 O   0  0  0  0  0  0  0  0  0  0  0  0
    7.0357   -0.7552    0.0000 C   0  0  0  0  0  0  0  0  0  0  0  0
    4.1836   -4.8738    0.0000 C   0  0  0  0  0  0  0  0  0  0  0  0
    3.4694   -4.4562    0.0000 C   0  0  0  0  0  0  0  0  0  0  0  0
    2.7549   -4.8731    0.0000 C   0  0  0  0  0  0  0  0  0  0  0  0
    2.7538   -5.6931    0.0000 C   0  0  0  0  0  0  0  0  0  0  0  0
    3.4706   -6.1048    0.0000 C   0  0  0  0  0  0  0  0  0  0  0  0
    4.1846   -5.6951    0.0000 C   0  0  0  0  0  0  0  0  0  0  0  0
    7.0279   -5.7066    0.0000 C   0  0  0  0  0  0  0  0  0  0  0  0
    6.3114   -6.1099    0.0000 C   0  0  0  0  0  0  0  0  0  0  0  0
    6.3075   -6.9323    0.0000 C   0  0  0  0  0  0  0  0  0  0  0  0
    7.0197   -7.3481    0.0000 C   0  0  0  0  0  0  0  0  0  0  0  0
    7.7350   -6.9338    0.0000 C   0  0  0  0  0  0  0  0  0  0  0  0
    7.7370   -6.1146    0.0000 C   0  0  0  0  0  0  0  0  0  0  0  0
    7.0170   -8.1724    0.0000 C   0  0  0  0  0  0  0  0  0  0  0  0
    5.5858   -8.1711    0.0000 C   0  0  0  0  0  0  0  0  0  0  0  0
    4.8730   -8.5772    0.0000 C   0  0  0  0  0  0  0  0  0  0  0  0
    5.5884   -7.3468    0.0000 O   0  0  0  0  0  0  0  0  0  0  0  0
    4.8662   -9.4015    0.0000 C   0  0  0  0  0  0  0  0  0  0  0  0
    4.1514   -9.8182    0.0000 C   0  0  0  0  0  0  0  0  0  0  0  0
    5.5785   -9.8195    0.0000 C   0  0  0  0  0  0  0  0  0  0  0  0
    4.8605  -10.2280    0.0000 C   0  0  0  0  0  0  0  0  0  0  0  0
    7.7250   -8.5904    0.0000 C   0  0  0  0  0  0  0  0  0  0  0  0
    8.4441   -8.1778    0.0000 O   0  0  0  0  0  0  0  0  0  0  0  0
    8.4410   -9.8327    0.0000 C   0  0  0  0  0  0  0  0  0  0  0  0
    8.4341  -10.6569    0.0000 C   0  0  0  0  0  0  0  0  0  0  0  0
    9.1558   -9.4201    0.0000 C   0  0  0  0  0  0  0  0  0  0  0  0
    9.1527  -11.0750    0.0000 C   0  0  0  0  0  0  0  0  0  0  0  0
    9.1458  -11.8991    0.0000 C   0  0  0  0  0  0  0  0  0  0  0  0
    9.8771   -9.8357    0.0000 O   0  0  0  0  0  0  0  0  0  0  0  0
    9.1621   -6.9147    0.0000 C   0  0  0  0  0  0  0  0  0  0  0  0
    9.1626   -6.0819    0.0000 C   0  0  0  0  0  0  0  0  0  0  0  0
    8.4131   -5.6017    0.0000 C   0  0  0  0  0  0  0  0  0  0  0  0
    3.4334   -8.5859    0.0000 C   0  0  0  0  0  0  0  0  0  0  0  0
    3.4389   -9.4169    0.0000 O   0  0  0  0  0  0  0  0  0  0  0  0
    2.7085   -8.1687    0.0000 O   0  0  0  0  0  0  0  0  0  0  0  0
    1.9797   -8.5830    0.0000 C   0  0  0  0  0  0  0  0  0  0  0  0
    1.2607   -8.1688    0.0000 C   0  0  0  0  0  0  0  0  0  0  0  0
    1.9798   -9.4127    0.0000 C   0  0  0  0  0  0  0  0  0  0  0  0
    1.2735   -9.0096    0.0000 C   0  0  0  0  0  0  0  0  0  0  0  0
    6.3001   -8.5828    0.0000 N   0  0  0  0  0  0  0  0  0  0  0  0
    4.1545   -8.1656    0.0000 N   0  0  0  0  0  0  0  0  0  0  0  0
    7.7245   -9.4146    0.0000 N   0  0  0  0  0  0  0  0  0  0  0  0
    9.1573   -8.5831    0.0000 N   0  0  0  0  0  0  0  0  0  0  0  0
  5  4  2  0
  6  5  2  0
  7  8  1  0
  8 13  2  0
 12  9  2  0
  9 10  1  0
 10 11  2  0
 11  8  1  0
 12 13  1  0
 13 14  1  0
 14 15  2  0
 15 16  1  0
 16 17  2  0
 17 12  1  0
 16 18  1  0
 18 19  1  0
 10 20  1  0
 20 21  2  0
 21 22  1  0
 22 23  2  0
 23 24  1  0
 24 25  2  0
 25 20  1  0
  7 26  1  0
 26 27  2  0
 27 28  1  0
 28 29  2  0
 29 30  1  0
 30 31  2  0
 31 26  1  0
 32 29  1  0
 32 58  1  1
 58 33  1  0
 33 34  1  0
 33 35  2  0
 34 59  1  0
 34 36  1  6
 36 37  1  0
 36 38  1  0
 36 39  1  0
 32 40  1  0
 40 60  1  0
 40 41  2  0
 60 42  1  0
 42 43  1  6
 42 44  1  0
 43 45  1  0
 45 46  1  0
 44 47  2  0
 44 61  1  0
 61  5  1  0
  5  1  1  0
  1 48  1  0
 31 50  1  0
 50 49  2  0
 59 51  1  0
 51 52  2  0
 51 53  1  0
 53 54  1  0
 54 55  1  0
 54 56  1  0
 54 57  1  0
 48 49  1  0
  2  1  1  0
  3  2  1  0
  1  3  1  0
M  END
> <chembl_id>
CHEMBL1813565

> <chembl_pref_name>
None

$$$$
CHEMBL488606
     RDKit          2D

 28 30  0  0  0  0  0  0  0  0999 V2000
   16.0083  -10.4792    0.0000 C   0  0  0  0  0  0  0  0  0  0  0  0
   16.7250  -10.0667    0.0000 C   0  0  0  0  0  0  0  0  0  0  0  0
   17.4417  -10.4875    0.0000 C   0  0  0  0  0  0  0  0  0  0  0  0
   15.3083  -10.0625    0.0000 C   0  0  0  0  0  0  0  0  0  0  0  0
   18.1583  -10.0750    0.0000 C   0  0  0  0  0  0  0  0  0  0  0  0
   16.0083  -11.3042    0.0000 C   0  0  0  0  0  0  0  0  0  0  0  0
   17.4417  -11.3042    0.0000 C   0  0  0  0  0  0  0  0  0  0  0  0
   14.5875  -10.4667    0.0000 C   0  0  0  0  0  0  0  0  0  0  0  0
   16.7250  -11.7167    0.0000 O   0  0  0  0  0  0  0  0  0  0  0  0
   18.8708  -10.4875    0.0000 C   0  0  0  0  0  0  0  0  0  0  0  0
   14.5833  -11.2917    0.0000 C   0  0  0  0  0  0  0  0  0  0  0  0
   15.2958  -11.7125    0.0000 C   0  0  0  0  0  0  0  0  0  0  0  0
   18.1583  -11.7292    0.0000 C   0  0  0  0  0  0  0  0  0  0  0  0
   18.8708  -11.3167    0.0000 C   0  0  0  0  0  0  0  0  0  0  0  0
   16.7333   -9.2417    0.0000 O   0  0  0  0  0  0  0  0  0  0  0  0
   19.5833  -11.7292    0.0000 O   0  0  0  0  0  0  0  0  0  0  0  0
   18.1594   -9.2500    0.0000 O   0  0  0  0  0  0  0  0  0  0  0  0
   19.5856  -10.0754    0.0000 C   0  0  0  0  0  0  0  0  0  0  0  0
   20.2998  -10.4884    0.0000 C   0  0  0  0  0  0  0  0  0  0  0  0
   21.0145  -10.0763    0.0000 C   0  0  0  0  0  0  0  0  0  0  0  0
   21.7287  -10.4892    0.0000 C   0  0  0  0  0  0  0  0  0  0  0  0
   21.0150   -9.2513    0.0000 C   0  0  0  0  0  0  0  0  0  0  0  0
   18.1540  -12.5542    0.0000 C   0  0  0  0  0  0  0  0  0  0  0  0
   18.8663  -12.9704    0.0000 C   0  0  0  0  0  0  0  0  0  0  0  0
   18.8620  -13.7954    0.0000 C   0  0  0  0  0  0  0  0  0  0  0  0
   19.5743  -14.2116    0.0000 C   0  0  0  0  0  0  0  0  0  0  0  0
   18.1454  -14.2041    0.0000 C   0  0  0  0  0  0  0  0  0  0  0  0
   15.2904  -12.5375    0.0000 O   0  0  0  0  0  0  0  0  0  0  0  0
 13  7  2  0
 14 13  1  0
 15  2  2  0
 16 14  1  0
  8 11  1  0
  3  7  1  0
 10 14  2  0
  5 17  1  0
  2  1  1  0
 10 18  1  0
  3  2  1  0
 18 19  1  0
  4  1  1  0
 19 20  2  0
  5  3  2  0
 20 21  1  0
  6  1  2  0
 20 22  1  0
  7  9  1  0
 13 23  1  0
  8  4  2  0
 23 24  1  0
  9  6  1  0
 24 25  2  0
 10  5  1  0
 25 26  1  0
 11 12  2  0
 25 27  1  0
 12  6  1  0
 12 28  1  0
M  END
> <chembl_id>
CHEMBL488606

> <chembl_pref_name>
8-DEOXYGARTANIN

$$$$
CHEMBL1576217
     RDKit          2D

 30 33  0  0  0  0  0  0  0  0999 V2000
    0.1552   -1.6402    0.0000 S   0  0  0  0  0  0  0  0  0  0  0  0
   -3.0121   -1.1133    0.0000 O   0  0  0  0  0  0  0  0  0  0  0  0
   -3.5668    0.5937    0.0000 O   0  0  0  0  0  0  0  0  0  0  0  0
   -1.5529   -1.8670    0.0000 O   0  0  0  0  0  0  0  0  0  0  0  0
   -2.1147    0.8237    0.0000 N   0  0  0  0  0  0  0  0  0  0  0  0
   -1.4002    2.0612    0.0000 N   0  0  0  0  0  0  0  0  0  0  0  0
   -1.4473    0.3388    0.0000 C   0  0  0  0  0  0  0  0  0  0  0  0
   -1.7022   -0.4459    0.0000 C   0  0  0  0  0  0  0  0  0  0  0  0
   -2.5272   -0.4459    0.0000 C   0  0  0  0  0  0  0  0  0  0  0  0
   -2.7822    0.3388    0.0000 C   0  0  0  0  0  0  0  0  0  0  0  0
   -0.6627    0.5937    0.0000 C   0  0  0  0  0  0  0  0  0  0  0  0
   -1.2173   -1.1133    0.0000 C   0  0  0  0  0  0  0  0  0  0  0  0
   -2.1147    1.6487    0.0000 C   0  0  0  0  0  0  0  0  0  0  0  0
   -0.3968   -1.0271    0.0000 C   0  0  0  0  0  0  0  0  0  0  0  0
   -0.4911    1.4007    0.0000 C   0  0  0  0  0  0  0  0  0  0  0  0
   -0.0496    0.0417    0.0000 C   0  0  0  0  0  0  0  0  0  0  0  0
   -2.8292    2.0612    0.0000 C   0  0  0  0  0  0  0  0  0  0  0  0
   -1.4002    2.8862    0.0000 C   0  0  0  0  0  0  0  0  0  0  0  0
    0.0157   -0.3126    0.0000 C   0  0  0  0  0  0  0  0  0  0  0  0
    0.9066    1.1036    0.0000 C   0  0  0  0  0  0  0  0  0  0  0  0
    0.2935    1.6556    0.0000 C   0  0  0  0  0  0  0  0  0  0  0  0
    0.7351    0.2966    0.0000 C   0  0  0  0  0  0  0  0  0  0  0  0
   -2.8292    2.8862    0.0000 C   0  0  0  0  0  0  0  0  0  0  0  0
   -2.1147    3.2987    0.0000 C   0  0  0  0  0  0  0  0  0  0  0  0
    0.9089   -1.3046    0.0000 C   0  0  0  0  0  0  0  0  0  0  0  0
    0.8227   -0.4841    0.0000 C   0  0  0  0  0  0  0  0  0  0  0  0
    1.6912    1.3585    0.0000 C   0  0  0  0  0  0  0  0  0  0  0  0
   -0.6858    3.2987    0.0000 C   0  0  0  0  0  0  0  0  0  0  0  0
    1.8627    2.1655    0.0000 C   0  0  0  0  0  0  0  0  0  0  0  0
    2.3043    0.8065    0.0000 C   0  0  0  0  0  0  0  0  0  0  0  0
  1 14  1  0
  1 25  1  0
  2  9  1  0
  3 10  2  0
  4 12  2  0
  5  7  1  0
  5 10  1  0
  5 13  1  0
  6 13  1  0
  6 18  2  0
  7  8  1  0
  7 11  1  0
  8  9  2  0
  8 12  1  0
  9 10  1  0
 11 15  2  0
 11 16  1  0
 12 14  1  0
 13 17  2  0
 14 19  2  0
 15 21  1  0
 16 22  2  0
 17 23  1  0
 18 24  1  0
 18 28  1  0
 19 26  1  0
 20 21  2  0
 20 22  1  0
 20 27  1  0
 23 24  2  0
 25 26  2  0
 27 29  1  0
 27 30  1  0
M  END
> <chembl_id>
CHEMBL1576217

> <chembl_pref_name>
None

$$$$
CHEMBL5194450
     RDKit          2D

 13 13  0  0  0  0  0  0  0  0999 V2000
    0.7140    0.8248    0.0000 C   0  0  0  0  0  0  0  0  0  0  0  0
    1.4285    1.2373    0.0000 C   0  0  0  0  0  0  0  0  0  0  0  0
    2.1429    0.8248    0.0000 C   0  0  0  0  0  0  0  0  0  0  0  0
    2.1429   -0.0002    0.0000 C   0  0  0  0  0  0  0  0  0  0  0  0
    1.4285   -0.4126    0.0000 O   0  0  0  0  0  0  0  0  0  0  0  0
    0.7140   -0.0002    0.0000 C   0  0  0  0  0  0  0  0  0  0  0  0
    2.8572   -0.4126    0.0000 O   0  0  0  0  0  0  0  0  0  0  0  0
   -0.0002   -0.4126    0.0000 C   0  0  0  0  0  0  0  0  0  0  0  0
   -0.0002   -1.2373    0.0000 O   0  0  0  0  0  0  0  0  0  0  0  0
   -0.7144   -0.0002    0.0000 C   0  0  0  0  0  0  0  0  0  0  0  0
   -1.4287   -0.4126    0.0000 C   0  0  0  0  0  0  0  0  0  0  0  0
   -2.1429   -0.0002    0.0000 C   0  0  0  0  0  0  0  0  0  0  0  0
   -2.8572   -0.4126    0.0000 C   0  0  0  0  0  0  0  0  0  0  0  0
  1  2  1  0
  3  2  2  0
  4  3  1  0
  5  4  1  0
  1  6  2  0
  6  5  1  0
  4  7  2  0
  6  8  1  0
  8  9  1  0
  8 10  1  0
 10 11  1  0
 11 12  1  0
 12 13  1  0
M  END
> <chembl_id>
CHEMBL5194450

> <chembl_pref_name>
None

$$$$
CHEMBL1909749
     RDKit          2D

 31 34  0  0  0  0  0  0  0  0999 V2000
   -5.0013   -0.8250    0.0000 C   0  0  0  0  0  0  0  0  0  0  0  0
   -4.2868   -1.2375    0.0000 C   0  0  0  0  0  0  0  0  0  0  0  0
   -3.5724   -0.8250    0.0000 C   0  0  0  0  0  0  0  0  0  0  0  0
   -2.8579   -1.2375    0.0000 C   0  0  0  0  0  0  0  0  0  0  0  0
   -2.8579   -2.0625    0.0000 C   0  0  0  0  0  0  0  0  0  0  0  0
   -3.5724   -2.4750    0.0000 C   0  0  0  0  0  0  0  0  0  0  0  0
   -4.2868   -2.0625    0.0000 C   0  0  0  0  0  0  0  0  0  0  0  0
   -5.7158   -0.4125    0.0000 N   0  0  0  0  0  0  0  0  0  0  0  0
   -2.1434   -0.8250    0.0000 C   0  0  0  0  0  0  0  0  0  0  0  0
   -1.4289   -1.2375    0.0000 O   0  0  0  0  0  0  0  0  0  0  0  0
   -0.7145   -0.8250    0.0000 C   0  0  0  0  0  0  0  0  0  0  0  0
   -0.7145    0.0000    0.0000 C   0  0  0  0  0  0  0  0  0  0  0  0
    0.0000    0.4125    0.0000 C   0  0  0  0  0  0  0  0  0  0  0  0
    0.7145    0.0000    0.0000 C   0  0  0  0  0  0  0  0  0  0  0  0
    1.4289    0.4125    0.0000 C   0  0  0  0  0  0  0  0  0  0  0  0
    2.1434    0.0000    0.0000 C   0  0  0  0  0  0  0  0  0  0  0  0
    2.1434   -0.8250    0.0000 C   0  0  0  0  0  0  0  0  0  0  0  0
    1.4289   -1.2375    0.0000 C   0  0  0  0  0  0  0  0  0  0  0  0
    0.7145   -0.8250    0.0000 C   0  0  0  0  0  0  0  0  0  0  0  0
    0.0000   -1.2375    0.0000 O   0  0  0  0  0  0  0  0  0  0  0  0
    0.0000    1.2375    0.0000 O   0  0  0  0  0  0  0  0  0  0  0  0
    1.4289    1.2375    0.0000 O   0  0  0  0  0  0  0  0  0  0  0  0
    2.8579    0.4125    0.0000 O   0  0  0  0  0  0  0  0  0  0  0  0
    3.5724    0.0000    0.0000 C   0  0  0  0  0  0  0  0  0  0  0  0
    4.2868    0.4125    0.0000 C   0  0  0  0  0  0  0  0  0  0  0  0
    4.2868    1.2375    0.0000 C   0  0  0  0  0  0  0  0  0  0  0  0
    5.0013    1.6500    0.0000 C   0  0  0  0  0  0  0  0  0  0  0  0
    5.7158    1.2375    0.0000 C   0  0  0  0  0  0  0  0  0  0  0  0
    5.0013    0.0000    0.0000 C   0  0  0  0  0  0  0  0  0  0  0  0
    5.7158    0.4125    0.0000 C   0  0  0  0  0  0  0  0  0  0  0  0
    6.4303    0.0000    0.0000 Cl  0  0  0  0  0  0  0  0  0  0  0  0
  1  2  1  0
  2  3  1  0
  3  4  2  0
  4  5  1  0
  5  6  2  0
  6  7  1  0
  2  7  2  0
  1  8  3  0
 11 12  2  0
 12 13  1  0
 13 14  1  0
 14 15  1  0
 15 16  2  0
 16 17  1  0
 17 18  2  0
 18 19  1  0
 14 19  2  0
 19 20  1  0
 11 20  1  0
 10 11  1  0
 13 21  2  0
 15 22  1  0
 24 25  1  0
 25 26  1  0
 26 27  2  0
 27 28  1  0
 28 30  2  0
 30 29  1  0
 25 29  2  0
 23 24  1  0
 16 23  1  0
  9 10  1  0
  4  9  1  0
 30 31  1  0
M  END
> <chembl_id>
CHEMBL1909749

> <chembl_pref_name>
None

$$$$
CHEMBL3736405
     RDKit          2D

 16 17  0  0  0  0  0  0  0  0999 V2000
   -2.3155    0.7475    0.0000 C   0  0  0  0  0  0  0  0  0  0  0  0
   -2.3155   -0.7475    0.0000 C   0  0  0  0  0  0  0  0  0  0  0  0
   -1.0028   -1.5132    0.0000 C   0  0  0  0  0  0  0  0  0  0  0  0
   -1.0028    1.5132    0.0000 C   0  0  0  0  0  0  0  0  0  0  0  0
    0.2917    0.7475    0.0000 C   0  0  0  0  0  0  0  0  0  0  0  0
    0.2917   -0.7475    0.0000 C   0  0  0  0  0  0  0  0  0  0  0  0
    1.7138   -1.2033    0.0000 N   0  0  0  0  0  0  0  0  0  0  0  0
    2.5889    0.0182    0.0000 N   0  0  0  0  0  0  0  0  0  0  0  0
    1.7138    1.2033    0.0000 N   0  0  0  0  0  0  0  0  0  0  0  0
   -0.9991    2.7132    0.0000 Br  0  0  0  0  0  0  0  0  0  0  0  0
   -3.3560    1.3452    0.0000 Br  0  0  0  0  0  0  0  0  0  0  0  0
   -3.3560   -1.3452    0.0000 Br  0  0  0  0  0  0  0  0  0  0  0  0
   -0.9991   -2.7132    0.0000 Br  0  0  0  0  0  0  0  0  0  0  0  0
    4.0872    0.0382    0.0000 C   0  0  0  0  0  0  0  0  0  0  0  0
    4.8208    1.3475    0.0000 C   0  0  0  0  0  0  0  0  0  0  0  0
    6.0207    1.3637    0.0000 C   0  0  0  0  0  0  0  0  0  0  0  0
  1  2  1  0
  2  3  2  0
  3  6  1  0
  5  4  1  0
  4  1  2  0
  5  6  1  0
  6  7  2  0
  7  8  1  0
  8  9  1  0
  9  5  2  0
  4 10  1  0
  1 11  1  0
  2 12  1  0
  3 13  1  0
  8 14  1  0
 14 15  1  0
 15 16  1  0
M  END
> <chembl_id>
CHEMBL3736405

> <chembl_pref_name>
None

$$$$
CHEMBL1982808
     RDKit          2D

 24 26  0  0  0  0  0  0  0  0999 V2000
    3.0844   -0.4802    0.0000 S   0  0  0  0  0  0  0  0  0  0  0  0
    0.9880    3.3047    0.0000 S   0  0  0  0  0  0  0  0  0  0  0  0
    1.7025    1.2422    0.0000 N   0  0  0  0  0  0  0  0  0  0  0  0
    1.7025    2.0672    0.0000 N   0  0  0  0  0  0  0  0  0  0  0  0
    0.2735    2.0672    0.0000 N   0  0  0  0  0  0  0  0  0  0  0  0
    2.8294   -1.2649    0.0000 C   0  0  0  0  0  0  0  0  0  0  0  0
    2.0044   -1.2649    0.0000 C   0  0  0  0  0  0  0  0  0  0  0  0
    2.4169    0.0047    0.0000 C   0  0  0  0  0  0  0  0  0  0  0  0
    1.7495   -0.4802    0.0000 C   0  0  0  0  0  0  0  0  0  0  0  0
    3.3144   -1.9323    0.0000 C   0  0  0  0  0  0  0  0  0  0  0  0
    1.5195   -1.9323    0.0000 C   0  0  0  0  0  0  0  0  0  0  0  0
    2.4169    0.8297    0.0000 C   0  0  0  0  0  0  0  0  0  0  0  0
    4.1348   -1.8461    0.0000 C   0  0  0  0  0  0  0  0  0  0  0  0
    2.9788   -2.6860    0.0000 C   0  0  0  0  0  0  0  0  0  0  0  0
    1.8551   -2.6860    0.0000 C   0  0  0  0  0  0  0  0  0  0  0  0
    0.6990   -1.8461    0.0000 C   0  0  0  0  0  0  0  0  0  0  0  0
    4.6198   -2.5135    0.0000 C   0  0  0  0  0  0  0  0  0  0  0  0
    3.4637   -3.3534    0.0000 C   0  0  0  0  0  0  0  0  0  0  0  0
    1.3701   -3.3534    0.0000 C   0  0  0  0  0  0  0  0  0  0  0  0
    0.2141   -2.5135    0.0000 C   0  0  0  0  0  0  0  0  0  0  0  0
    3.1314    1.2422    0.0000 C   0  0  0  0  0  0  0  0  0  0  0  0
    4.2842   -3.2672    0.0000 C   0  0  0  0  0  0  0  0  0  0  0  0
    0.5497   -3.2672    0.0000 C   0  0  0  0  0  0  0  0  0  0  0  0
    0.9880    2.4797    0.0000 C   0  0  0  0  0  0  0  0  0  0  0  0
  1  6  1  0
  1  8  1  0
  2 24  2  0
  3  4  1  0
  3 12  2  0
  4 24  1  0
  5 24  1  0
  6  7  2  0
  6 10  1  0
  7  9  1  0
  7 11  1  0
  8  9  2  0
  8 12  1  0
 10 13  2  0
 10 14  1  0
 11 15  2  0
 11 16  1  0
 12 21  1  0
 13 17  1  0
 14 18  2  0
 15 19  1  0
 16 20  2  0
 17 22  2  0
 18 22  1  0
 19 23  2  0
 20 23  1  0
M  END
> <chembl_id>
CHEMBL1982808

> <chembl_pref_name>
None

$$$$
CHEMBL2059290
     RDKit          2D

 21 23  0  0  0  0  0  0  0  0999 V2000
   22.3711  -17.8013    0.0000 C   0  0  0  0  0  0  0  0  0  0  0  0
   23.0826  -17.3861    0.0000 C   0  0  0  0  0  0  0  0  0  0  0  0
   22.3672  -16.9775    0.0000 C   0  0  0  0  0  0  0  0  0  0  0  0
   18.8367  -17.4065    0.0000 C   0  0  0  0  0  0  0  0  0  0  0  0
   19.5485  -16.9862    0.0000 C   0  0  0  0  0  0  0  0  0  0  0  0
   18.1206  -16.9968    0.0000 C   0  0  0  0  0  0  0  0  0  0  0  0
   18.8367  -18.2262    0.0000 C   0  0  0  0  0  0  0  0  0  0  0  0
   17.4087  -17.4129    0.0000 C   0  0  0  0  0  0  0  0  0  0  0  0
   18.1269  -18.6465    0.0000 O   0  0  0  0  0  0  0  0  0  0  0  0
   19.5548  -18.6381    0.0000 C   0  0  0  0  0  0  0  0  0  0  0  0
   17.4087  -18.2367    0.0000 C   0  0  0  0  0  0  0  0  0  0  0  0
   18.1206  -16.1582    0.0000 O   0  0  0  0  0  0  0  0  0  0  0  0
   19.5485  -16.1582    0.0000 O   0  0  0  0  0  0  0  0  0  0  0  0
   16.6991  -18.6528    0.0000 C   0  0  0  0  0  0  0  0  0  0  0  0
   20.2619  -15.7463    0.0000 C   0  0  0  0  0  0  0  0  0  0  0  0
   20.2669  -17.3960    0.0000 C   0  0  0  0  0  0  0  0  0  0  0  0
   20.2708  -18.2262    0.0000 C   0  0  0  0  0  0  0  0  0  0  0  0
   21.0615  -18.4790    0.0000 O   0  0  0  0  0  0  0  0  0  0  0  0
   21.5464  -17.8051    0.0000 C   0  0  0  0  0  0  0  0  0  0  0  0
   21.0553  -17.1358    0.0000 C   0  0  0  0  0  0  0  0  0  0  0  0
   22.7855  -18.5128    0.0000 O   0  0  0  0  0  0  0  0  0  0  0  0
  7  4  2  0
  8  6  1  0
  9  7  1  0
 10  7  1  0
 11  9  1  0
 12  6  2  0
 13  5  1  0
 14 11  1  0
 11  8  2  0
  1  3  1  0
 13 15  1  0
 16 17  1  0
  2  1  1  0
 16  5  2  0
  5  4  1  0
  6  4  1  0
 17 18  1  0
 18 19  1  0
 19 20  1  0
 20 16  1  0
 19  1  1  0
 17 10  2  0
  1 21  1  0
M  END
> <chembl_id>
CHEMBL2059290

> <chembl_pref_name>
None

$$$$
CHEMBL4080897
     RDKit          2D

 26 29  0  0  0  0  0  0  0  0999 V2000
   11.3529  -14.3494    0.0000 C   0  0  0  0  0  0  0  0  0  0  0  0
   10.8705  -13.6908    0.0000 C   0  0  0  0  0  0  0  0  0  0  0  0
   11.1173  -12.9111    0.0000 C   0  0  0  0  0  0  0  0  0  0  0  0
   10.4533  -12.4376    0.0000 N   0  0  0  0  0  0  0  0  0  0  0  0
    9.7949  -12.9203    0.0000 C   0  0  0  0  0  0  0  0  0  0  0  0
   10.0533  -13.6949    0.0000 C   0  0  0  0  0  0  0  0  0  0  0  0
    9.0152  -12.6735    0.0000 C   0  0  0  0  0  0  0  0  0  0  0  0
    8.8404  -11.8768    0.0000 C   0  0  0  0  0  0  0  0  0  0  0  0
    8.0607  -11.6300    0.0000 C   0  0  0  0  0  0  0  0  0  0  0  0
    7.4556  -12.1799    0.0000 C   0  0  0  0  0  0  0  0  0  0  0  0
    7.6345  -12.9765    0.0000 C   0  0  0  0  0  0  0  0  0  0  0  0
    8.4101  -13.2275    0.0000 C   0  0  0  0  0  0  0  0  0  0  0  0
   10.4492  -11.6205    0.0000 C   0  0  0  0  0  0  0  0  0  0  0  0
   11.1500  -11.2088    0.0000 C   0  0  0  0  0  0  0  0  0  0  0  0
   11.1458  -10.3917    0.0000 C   0  0  0  0  0  0  0  0  0  0  0  0
   10.4368   -9.9861    0.0000 C   0  0  0  0  0  0  0  0  0  0  0  0
    9.7318  -10.3977    0.0000 C   0  0  0  0  0  0  0  0  0  0  0  0
    9.7360  -11.2149    0.0000 C   0  0  0  0  0  0  0  0  0  0  0  0
   11.8919  -12.6568    0.0000 O   0  0  0  0  0  0  0  0  0  0  0  0
   12.1696  -14.3195    0.0000 C   0  0  0  0  0  0  0  0  0  0  0  0
   12.5995  -15.0148    0.0000 C   0  0  0  0  0  0  0  0  0  0  0  0
   13.4154  -14.9853    0.0000 C   0  0  0  0  0  0  0  0  0  0  0  0
   13.7986  -14.2625    0.0000 C   0  0  0  0  0  0  0  0  0  0  0  0
   13.3599  -13.5680    0.0000 C   0  0  0  0  0  0  0  0  0  0  0  0
   12.5455  -13.6011    0.0000 C   0  0  0  0  0  0  0  0  0  0  0  0
   14.6152  -14.2314    0.0000 Br  0  0  0  0  0  0  0  0  0  0  0  0
  1  2  2  0
  2  3  1  0
  3  4  1  0
  4  5  1  0
  5  6  2  0
  2  6  1  0
  5  7  1  0
  7  8  2  0
  8  9  1  0
  9 10  2  0
 10 11  1  0
 11 12  2  0
  7 12  1  0
  4 13  1  0
 13 14  2  0
 14 15  1  0
 15 16  2  0
 16 17  1  0
 17 18  2  0
 13 18  1  0
  3 19  2  0
  1 20  1  0
 20 21  2  0
 21 22  1  0
 22 23  2  0
 23 24  1  0
 24 25  2  0
 25 20  1  0
 23 26  1  0
M  END
> <chembl_id>
CHEMBL4080897

> <chembl_pref_name>
None

$$$$
CHEMBL1771802
     RDKit          2D

 24 27  0  0  0  0  0  0  0  0999 V2000
   -4.3382   -1.0177    0.0000 C   0  0  0  0  0  0  0  0  0  0  0  0
   -4.3394   -1.8426    0.0000 C   0  0  0  0  0  0  0  0  0  0  0  0
   -3.6267   -2.2541    0.0000 C   0  0  0  0  0  0  0  0  0  0  0  0
   -3.6285   -0.6062    0.0000 C   0  0  0  0  0  0  0  0  0  0  0  0
   -2.9153   -1.0141    0.0000 C   0  0  0  0  0  0  0  0  0  0  0  0
   -2.9165   -1.8446    0.0000 C   0  0  0  0  0  0  0  0  0  0  0  0
   -2.2018   -2.2586    0.0000 N   0  0  0  0  0  0  0  0  0  0  0  0
   -2.1994   -0.5976    0.0000 C   0  0  0  0  0  0  0  0  0  0  0  0
   -2.1994    0.2249    0.0000 N   0  0  0  0  0  0  0  0  0  0  0  0
   -1.4871    0.6362    0.0000 N   0  0  0  0  0  0  0  0  0  0  0  0
   -1.4801   -1.0161    0.0000 C   0  0  0  0  0  0  0  0  0  0  0  0
   -1.4832   -1.8488    0.0000 C   0  0  0  0  0  0  0  0  0  0  0  0
   -0.7677   -2.2653    0.0000 C   0  0  0  0  0  0  0  0  0  0  0  0
   -0.0445   -1.8539    0.0000 C   0  0  0  0  0  0  0  0  0  0  0  0
   -0.0414   -1.0214    0.0000 C   0  0  0  0  0  0  0  0  0  0  0  0
   -0.7615   -0.6002    0.0000 C   0  0  0  0  0  0  0  0  0  0  0  0
   -1.4870    1.4586    0.0000 C   0  0  0  0  0  0  0  0  0  0  0  0
   -0.7747    1.8699    0.0000 C   0  0  0  0  0  0  0  0  0  0  0  0
   -2.1993    1.8699    0.0000 O   0  0  0  0  0  0  0  0  0  0  0  0
   -0.0609    1.4581    0.0000 N   0  0  0  0  0  0  0  0  0  0  0  0
    0.6493    1.8657    0.0000 C   0  0  0  0  0  0  0  0  0  0  0  0
    0.6536    2.6886    0.0000 C   0  0  0  0  0  0  0  0  0  0  0  0
   -0.0585    3.1020    0.0000 N   0  0  0  0  0  0  0  0  0  0  0  0
   -0.7749    2.6927    0.0000 C   0  0  0  0  0  0  0  0  0  0  0  0
  5  6  1  0
  2  3  1  0
  3  6  2  0
  1  2  2  0
  5  8  1  0
 11 16  1  0
 12 13  1  0
 13 14  1  0
 14 15  1  0
 15 16  1  0
  6  7  1  0
 10 17  1  0
  7 12  2  0
 17 18  1  0
 11  8  2  0
 17 19  2  0
 18 20  2  0
  5  4  2  0
  8  9  1  0
  4  1  1  0
  9 10  1  0
 11 12  1  0
 18 24  1  0
 20 21  1  0
 21 22  2  0
 22 23  1  0
 23 24  2  0
M  END
> <chembl_id>
CHEMBL1771802

> <chembl_pref_name>
None

$$$$
CHEMBL4075770
     RDKit          2D

 32 34  0  0  0  0  0  0  0  0999 V2000
   31.0698  -14.2348    0.0000 O   0  0  0  0  0  0  0  0  0  0  0  0
   30.6653  -13.5291    0.0000 S   0  0  0  0  0  0  0  0  0  0  0  0
   30.2563  -14.2322    0.0000 O   0  0  0  0  0  0  0  0  0  0  0  0
   23.1826  -13.6281    0.0000 O   0  0  0  0  0  0  0  0  0  0  0  0
   23.5954  -14.3380    0.0000 S   0  0  0  0  0  0  0  0  0  0  0  0
   24.0038  -13.6256    0.0000 O   0  0  0  0  0  0  0  0  0  0  0  0
   26.4266  -13.5208    0.0000 C   0  0  0  0  0  0  0  0  0  0  0  0
   26.4266  -14.3380    0.0000 N   0  0  0  0  0  0  0  0  0  0  0  0
   27.1319  -14.7425    0.0000 C   0  0  0  0  0  0  0  0  0  0  0  0
   27.8372  -14.3380    0.0000 C   0  0  0  0  0  0  0  0  0  0  0  0
   27.8372  -13.5208    0.0000 N   0  0  0  0  0  0  0  0  0  0  0  0
   27.1319  -13.1081    0.0000 C   0  0  0  0  0  0  0  0  0  0  0  0
   28.5461  -13.1143    0.0000 C   0  0  0  0  0  0  0  0  0  0  0  0
   29.2526  -13.5249    0.0000 C   0  0  0  0  0  0  0  0  0  0  0  0
   29.9615  -13.1184    0.0000 N   0  0  0  0  0  0  0  0  0  0  0  0
   25.7195  -14.7476    0.0000 C   0  0  0  0  0  0  0  0  0  0  0  0
   25.0112  -14.3400    0.0000 C   0  0  0  0  0  0  0  0  0  0  0  0
   24.3041  -14.7497    0.0000 N   0  0  0  0  0  0  0  0  0  0  0  0
   22.8887  -14.7517    0.0000 C   0  0  0  0  0  0  0  0  0  0  0  0
   22.1813  -14.3425    0.0000 C   0  0  0  0  0  0  0  0  0  0  0  0
   21.4746  -14.7515    0.0000 C   0  0  0  0  0  0  0  0  0  0  0  0
   21.4754  -15.5695    0.0000 C   0  0  0  0  0  0  0  0  0  0  0  0
   22.1887  -15.9769    0.0000 C   0  0  0  0  0  0  0  0  0  0  0  0
   22.8924  -15.5656    0.0000 C   0  0  0  0  0  0  0  0  0  0  0  0
   31.3769  -13.1226    0.0000 C   0  0  0  0  0  0  0  0  0  0  0  0
   32.0803  -13.5366    0.0000 C   0  0  0  0  0  0  0  0  0  0  0  0
   32.7887  -13.1308    0.0000 C   0  0  0  0  0  0  0  0  0  0  0  0
   32.7915  -12.3127    0.0000 C   0  0  0  0  0  0  0  0  0  0  0  0
   32.0800  -11.9022    0.0000 C   0  0  0  0  0  0  0  0  0  0  0  0
   31.3745  -12.3104    0.0000 C   0  0  0  0  0  0  0  0  0  0  0  0
   33.4999  -11.9052    0.0000 C   0  0  0  0  0  0  0  0  0  0  0  0
   20.7688  -15.9801    0.0000 C   0  0  0  0  0  0  0  0  0  0  0  0
  2  1  2  0
  3  2  2  0
  5  4  2  0
  6  5  2  0
  7  8  1  0
  7 12  1  0
  8  9  1  0
  9 10  1  0
 10 11  1  0
 11 12  1  0
 11 13  1  0
 13 14  1  0
 14 15  1  0
  8 16  1  0
 16 17  1  0
 17 18  1  0
 18  5  1  0
  5 19  1  0
 19 20  2  0
 20 21  1  0
 21 22  2  0
 22 23  1  0
 23 24  2  0
 24 19  1  0
 15  2  1  0
  2 25  1  0
 25 26  2  0
 26 27  1  0
 27 28  2  0
 28 29  1  0
 29 30  2  0
 30 25  1  0
 28 31  1  0
 22 32  1  0
M  END
> <chembl_id>
CHEMBL4075770

> <chembl_pref_name>
None

$$$$
CHEMBL492770
     RDKit          2D

 22 23  0  0  0  0  0  0  0  0999 V2000
   17.0542   -5.0792    0.0000 C   0  0  0  0  0  0  0  0  0  0  0  0
   17.7686   -4.6667    0.0000 C   0  0  0  0  0  0  0  0  0  0  0  0
   17.0542   -5.9083    0.0000 O   0  0  0  0  0  0  0  0  0  0  0  0
   18.4873   -5.0792    0.0000 C   0  0  0  0  0  0  0  0  0  0  0  0
   19.2059   -4.6667    0.0000 C   0  0  0  0  0  0  0  0  0  0  0  0
   18.4873   -5.9083    0.0000 O   0  0  0  0  0  0  0  0  0  0  0  0
   19.9246   -5.0792    0.0000 O   0  0  0  0  0  0  0  0  0  0  0  0
   19.2059   -3.8375    0.0000 O   0  0  0  0  0  0  0  0  0  0  0  0
   16.3397   -4.6667    0.0000 C   0  0  0  0  0  0  0  0  0  0  0  0
   16.3447   -3.8406    0.0000 C   0  0  0  0  0  0  0  0  0  0  0  0
   15.6310   -3.4282    0.0000 C   0  0  0  0  0  0  0  0  0  0  0  0
   14.9156   -3.8407    0.0000 C   0  0  0  0  0  0  0  0  0  0  0  0
   14.9182   -4.6700    0.0000 C   0  0  0  0  0  0  0  0  0  0  0  0
   15.6324   -5.0787    0.0000 C   0  0  0  0  0  0  0  0  0  0  0  0
   14.2052   -5.0850    0.0000 O   0  0  0  0  0  0  0  0  0  0  0  0
   13.4893   -4.6750    0.0000 C   0  0  0  0  0  0  0  0  0  0  0  0
   12.7763   -5.0901    0.0000 C   0  0  0  0  0  0  0  0  0  0  0  0
   12.0636   -4.6820    0.0000 C   0  0  0  0  0  0  0  0  0  0  0  0
   11.3509   -5.9189    0.0000 C   0  0  0  0  0  0  0  0  0  0  0  0
   12.0684   -6.3310    0.0000 C   0  0  0  0  0  0  0  0  0  0  0  0
   11.3579   -5.0935    0.0000 C   0  0  0  0  0  0  0  0  0  0  0  0
   12.7820   -5.9179    0.0000 C   0  0  0  0  0  0  0  0  0  0  0  0
  4  6  1  0
 11 12  2  0
  1  2  1  0
 12 13  1  0
  5  7  1  0
 13 14  2  0
 14  9  1  0
  2  4  2  0
 13 15  1  0
  5  8  2  0
 15 16  1  0
 16 17  1  0
 17 18  2  0
  1  9  1  0
 19 20  1  0
  4  5  1  0
  9 10  2  0
  1  3  2  0
 10 11  1  0
 17 22  1  0
 18 21  1  0
 21 19  2  0
 20 22  2  0
M  END
> <chembl_id>
CHEMBL492770

> <chembl_pref_name>
None

$$$$
CHEMBL251254
     RDKit          2D

 33 36  0  0  0  0  0  0  0  0999 V2000
   -0.1046    5.0616    0.0000 C   0  0  0  0  0  0  0  0  0  0  0  0
    0.6099    5.4741    0.0000 C   0  0  0  0  0  0  0  0  0  0  0  0
   -0.1046    4.2366    0.0000 C   0  0  0  0  0  0  0  0  0  0  0  0
    0.6099    3.8241    0.0000 C   0  0  0  0  0  0  0  0  0  0  0  0
    1.3244    4.2366    0.0000 C   0  0  0  0  0  0  0  0  0  0  0  0
    1.3244    5.0616    0.0000 C   0  0  0  0  0  0  0  0  0  0  0  0
    0.6099    2.9991    0.0000 O   0  0  0  0  0  0  0  0  0  0  0  0
    2.0389    5.4742    0.0000 O   0  0  0  0  0  0  0  0  0  0  0  0
    2.7534    5.0617    0.0000 C   0  0  0  0  0  0  0  0  0  0  0  0
    2.7534    4.2367    0.0000 C   0  0  0  0  0  0  0  0  0  0  0  0
    2.0389    3.8242    0.0000 C   0  0  0  0  0  0  0  0  0  0  0  0
    3.4679    5.4742    0.0000 C   0  0  0  0  0  0  0  0  0  0  0  0
    4.1823    5.0617    0.0000 C   0  0  0  0  0  0  0  0  0  0  0  0
    4.8968    5.4742    0.0000 C   0  0  0  0  0  0  0  0  0  0  0  0
    4.8968    6.2992    0.0000 C   0  0  0  0  0  0  0  0  0  0  0  0
    4.1823    6.7117    0.0000 C   0  0  0  0  0  0  0  0  0  0  0  0
    3.4678    6.2992    0.0000 C   0  0  0  0  0  0  0  0  0  0  0  0
    2.0389    2.9992    0.0000 O   0  0  0  0  0  0  0  0  0  0  0  0
   -0.8190    5.4741    0.0000 O   0  0  0  0  0  0  0  0  0  0  0  0
    4.1823    7.5367    0.0000 O   0  0  0  0  0  0  0  0  0  0  0  0
    5.6113    6.7117    0.0000 O   0  0  0  0  0  0  0  0  0  0  0  0
    3.8074    1.5770    0.0000 C   0  0  0  0  0  0  0  0  0  0  0  0
    3.0929    1.9895    0.0000 O   0  0  0  0  0  0  0  0  0  0  0  0
    2.3785    1.5770    0.0000 C   0  0  0  0  0  0  0  0  0  0  0  0
    2.3784    0.7520    0.0000 C   0  0  0  0  0  0  0  0  0  0  0  0
    3.0929    0.3395    0.0000 C   0  0  0  0  0  0  0  0  0  0  0  0
    3.8074    0.7520    0.0000 C   0  0  0  0  0  0  0  0  0  0  0  0
    1.6640    1.9895    0.0000 C   0  0  0  0  0  0  0  0  0  0  0  0
    0.9495    1.5770    0.0000 O   0  0  0  0  0  0  0  0  0  0  0  0
    1.6640    0.3395    0.0000 O   0  0  0  0  0  0  0  0  0  0  0  0
    3.0929   -0.4855    0.0000 O   0  0  0  0  0  0  0  0  0  0  0  0
    4.5219    0.3395    0.0000 O   0  0  0  0  0  0  0  0  0  0  0  0
    4.3285    3.4007    0.0000 O   0  0  0  0  0  0  0  0  0  0  0  0
  2  1  2  0
  1  3  1  0
  2  6  1  0
  3  4  2  0
  4  5  1  0
  4  7  1  0
 11  5  1  0
  5  6  2  0
  6  8  1  0
  8  9  1  0
  9 10  2  0
 10 11  1  0
  9 12  1  0
 12 13  2  0
 12 17  1  0
 13 14  1  0
 14 15  2  0
 15 16  1  0
 16 17  2  0
 11 18  2  0
  1 19  1  0
 16 20  1  0
 15 21  1  0
 22 23  1  0
 27 22  1  0
 23 24  1  0
 24 25  1  0
 25 26  1  0
 26 27  1  0
 24 28  1  1
 28 29  1  0
 25 30  1  1
 26 31  1  1
 27 32  1  6
 22 33  1  1
 10 33  1  0
M  END
> <chembl_id>
CHEMBL251254

> <chembl_pref_name>
HYPEROSIDE

$$$$
CHEMBL3986658
     RDKit          2D

 24 27  0  0  0  0  0  0  0  0999 V2000
   10.3712  -18.7865    0.0000 C   0  0  0  0  0  0  0  0  0  0  0  0
   10.3685  -19.6037    0.0000 C   0  0  0  0  0  0  0  0  0  0  0  0
   11.0783  -20.0110    0.0000 C   0  0  0  0  0  0  0  0  0  0  0  0
   11.7867  -19.6012    0.0000 C   0  0  0  0  0  0  0  0  0  0  0  0
   11.7852  -18.7840    0.0000 C   0  0  0  0  0  0  0  0  0  0  0  0
   11.0754  -18.3766    0.0000 C   0  0  0  0  0  0  0  0  0  0  0  0
    9.6614  -18.3791    0.0000 O   0  0  0  0  0  0  0  0  0  0  0  0
    9.6642  -20.0135    0.0000 C   0  0  0  0  0  0  0  0  0  0  0  0
    8.9544  -19.6062    0.0000 C   0  0  0  0  0  0  0  0  0  0  0  0
    9.6657  -20.8307    0.0000 N   0  0  0  0  0  0  0  0  0  0  0  0
    8.9573  -21.2405    0.0000 N   0  0  0  0  0  0  0  0  0  0  0  0
    9.6659  -23.2823    0.0000 C   0  0  0  0  0  0  0  0  0  0  0  0
    8.9575  -23.6921    0.0000 N   0  0  0  0  0  0  0  0  0  0  0  0
    8.2518  -23.2848    0.0000 C   0  0  0  0  0  0  0  0  0  0  0  0
    8.2504  -22.4676    0.0000 C   0  0  0  0  0  0  0  0  0  0  0  0
    8.9588  -22.0577    0.0000 C   0  0  0  0  0  0  0  0  0  0  0  0
    9.6644  -22.4651    0.0000 N   0  0  0  0  0  0  0  0  0  0  0  0
    7.4727  -22.2143    0.0000 C   0  0  0  0  0  0  0  0  0  0  0  0
    6.9937  -22.8784    0.0000 C   0  0  0  0  0  0  0  0  0  0  0  0
    7.4751  -23.5367    0.0000 S   0  0  0  0  0  0  0  0  0  0  0  0
    6.1791  -22.7917    0.0000 C   0  0  0  0  0  0  0  0  0  0  0  0
    5.8475  -22.0450    0.0000 C   0  0  0  0  0  0  0  0  0  0  0  0
    6.3265  -21.3850    0.0000 C   0  0  0  0  0  0  0  0  0  0  0  0
    7.1411  -21.4676    0.0000 C   0  0  0  0  0  0  0  0  0  0  0  0
  1  2  1  0
  2  3  2  0
  3  4  1  0
  4  5  2  0
  5  6  1  0
  1  6  2  0
  1  7  1  0
  8  9  1  0
 10 11  1  0
 12 13  1  0
 13 14  2  0
 14 15  1  0
 15 16  2  0
 16 17  1  0
 12 17  2  0
 18 19  1  0
 19 20  1  0
 21 22  1  0
 22 23  2  0
 23 24  1  0
 18 24  2  0
 19 21  2  0
 14 20  1  0
 15 18  1  0
 11 16  1  0
  8 10  2  0
  2  8  1  0
M  END
> <chembl_id>
CHEMBL3986658

> <chembl_pref_name>
None

$$$$
CHEMBL4077147
     RDKit          2D

 34 36  0  0  0  0  0  0  0  0999 V2000
    4.3212  -15.7330    0.0000 O   0  0  0  0  0  0  0  0  0  0  0  0
    3.9167  -15.0272    0.0000 S   0  0  0  0  0  0  0  0  0  0  0  0
    3.5078  -15.7304    0.0000 O   0  0  0  0  0  0  0  0  0  0  0  0
   11.9937  -12.6871    0.0000 O   0  0  0  0  0  0  0  0  0  0  0  0
   12.4064  -13.3970    0.0000 S   0  0  0  0  0  0  0  0  0  0  0  0
   12.8149  -12.6846    0.0000 O   0  0  0  0  0  0  0  0  0  0  0  0
    7.4579  -13.7973    0.0000 C   0  0  0  0  0  0  0  0  0  0  0  0
    7.4579  -14.6145    0.0000 N   0  0  0  0  0  0  0  0  0  0  0  0
    8.1632  -15.0190    0.0000 C   0  0  0  0  0  0  0  0  0  0  0  0
    8.8685  -14.6145    0.0000 C   0  0  0  0  0  0  0  0  0  0  0  0
    8.8685  -13.7973    0.0000 N   0  0  0  0  0  0  0  0  0  0  0  0
    8.1632  -13.3846    0.0000 C   0  0  0  0  0  0  0  0  0  0  0  0
    9.5774  -13.3908    0.0000 C   0  0  0  0  0  0  0  0  0  0  0  0
   10.2839  -13.8015    0.0000 C   0  0  0  0  0  0  0  0  0  0  0  0
   10.9928  -13.3950    0.0000 C   0  0  0  0  0  0  0  0  0  0  0  0
   11.6993  -13.8056    0.0000 N   0  0  0  0  0  0  0  0  0  0  0  0
   13.1147  -13.8098    0.0000 C   0  0  0  0  0  0  0  0  0  0  0  0
   13.1071  -14.6279    0.0000 C   0  0  0  0  0  0  0  0  0  0  0  0
   13.8127  -15.0385    0.0000 C   0  0  0  0  0  0  0  0  0  0  0  0
   14.5226  -14.6320    0.0000 C   0  0  0  0  0  0  0  0  0  0  0  0
   14.5224  -13.8105    0.0000 C   0  0  0  0  0  0  0  0  0  0  0  0
   13.8161  -13.4036    0.0000 C   0  0  0  0  0  0  0  0  0  0  0  0
    6.7508  -15.0241    0.0000 C   0  0  0  0  0  0  0  0  0  0  0  0
    6.0425  -14.6166    0.0000 C   0  0  0  0  0  0  0  0  0  0  0  0
    5.3354  -15.0262    0.0000 C   0  0  0  0  0  0  0  0  0  0  0  0
    4.6271  -14.6186    0.0000 N   0  0  0  0  0  0  0  0  0  0  0  0
    3.2117  -14.6207    0.0000 C   0  0  0  0  0  0  0  0  0  0  0  0
    3.2098  -13.8045    0.0000 C   0  0  0  0  0  0  0  0  0  0  0  0
    2.5023  -13.3970    0.0000 C   0  0  0  0  0  0  0  0  0  0  0  0
    1.7965  -13.8066    0.0000 C   0  0  0  0  0  0  0  0  0  0  0  0
    1.8009  -14.6281    0.0000 C   0  0  0  0  0  0  0  0  0  0  0  0
    2.5061  -15.0318    0.0000 C   0  0  0  0  0  0  0  0  0  0  0  0
    1.0872  -13.4008    0.0000 C   0  0  0  0  0  0  0  0  0  0  0  0
   15.2297  -15.0417    0.0000 C   0  0  0  0  0  0  0  0  0  0  0  0
  2  1  2  0
  3  2  2  0
  5  4  2  0
  6  5  2  0
  7  8  1  0
  7 12  1  0
  8  9  1  0
  9 10  1  0
 10 11  1  0
 11 12  1  0
 11 13  1  0
 13 14  1  0
 14 15  1  0
 15 16  1  0
 16  5  1  0
  5 17  1  0
 17 18  2  0
 18 19  1  0
 19 20  2  0
 20 21  1  0
 21 22  2  0
 22 17  1  0
  8 23  1  0
 23 24  1  0
 24 25  1  0
 25 26  1  0
 26  2  1  0
  2 27  1  0
 27 28  2  0
 28 29  1  0
 29 30  2  0
 30 31  1  0
 31 32  2  0
 32 27  1  0
 30 33  1  0
 20 34  1  0
M  END
> <chembl_id>
CHEMBL4077147

> <chembl_pref_name>
None

$$$$
CHEMBL4759473
     RDKit          2D

 35 39  0  0  0  0  0  0  0  0999 V2000
    4.8697   -9.5263    0.0000 C   0  0  0  0  0  0  0  0  0  0  0  0
    5.5048   -8.8491    0.0000 C   0  0  0  0  0  0  0  0  0  0  0  0
    5.6665   -9.3034    0.0000 C   0  0  0  0  0  0  0  0  0  0  0  0
    6.2053   -9.1093    0.0000 C   0  0  0  0  0  0  0  0  0  0  0  0
    6.4121   -9.6033    0.0000 C   0  0  0  0  0  0  0  0  0  0  0  0
    6.9502   -8.9255    0.0000 C   0  0  0  0  0  0  0  0  0  0  0  0
    5.6597   -8.4631    0.0000 O   0  0  0  0  0  0  0  0  0  0  0  0
    6.2151   -7.8073    0.0000 C   0  0  0  0  0  0  0  0  0  0  0  0
    5.5004   -8.0612    0.0000 O   0  0  0  0  0  0  0  0  0  0  0  0
    6.9560   -8.1144    0.0000 O   0  0  0  0  0  0  0  0  0  0  0  0
    5.5084   -5.7616    0.0000 C   0  0  0  0  0  0  0  0  0  0  0  0
    5.5073   -6.5811    0.0000 C   0  0  0  0  0  0  0  0  0  0  0  0
    6.2153   -6.9901    0.0000 C   0  0  0  0  0  0  0  0  0  0  0  0
    6.9250   -6.5806    0.0000 C   0  0  0  0  0  0  0  0  0  0  0  0
    6.9222   -5.7580    0.0000 C   0  0  0  0  0  0  0  0  0  0  0  0
    6.2135   -5.3527    0.0000 N   0  0  0  0  0  0  0  0  0  0  0  0
    7.6283   -5.3467    0.0000 C   0  0  0  0  0  0  0  0  0  0  0  0
    4.6844   -8.8447    0.0000 O   0  0  0  0  0  0  0  0  0  0  0  0
    5.6584  -10.1200    0.0000 O   0  0  0  0  0  0  0  0  0  0  0  0
    7.7668   -8.8933    0.0000 O   0  0  0  0  0  0  0  0  0  0  0  0
    7.6333   -6.9881    0.0000 O   0  0  0  0  0  0  0  0  0  0  0  0
    4.7993   -6.9891    0.0000 C   0  0  0  0  0  0  0  0  0  0  0  0
    4.8006   -5.3531    0.0000 C   0  0  0  0  0  0  0  0  0  0  0  0
    4.8004   -4.5360    0.0000 C   0  0  0  0  0  0  0  0  0  0  0  0
    4.0930   -5.7619    0.0000 C   0  0  0  0  0  0  0  0  0  0  0  0
    4.0926   -4.1275    0.0000 C   0  0  0  0  0  0  0  0  0  0  0  0
    4.0977   -3.3055    0.0000 C   0  0  0  0  0  0  0  0  0  0  0  0
    3.3907   -2.8971    0.0000 C   0  0  0  0  0  0  0  0  0  0  0  0
    2.6822   -3.3059    0.0000 C   0  0  0  0  0  0  0  0  0  0  0  0
    2.6850   -4.1273    0.0000 C   0  0  0  0  0  0  0  0  0  0  0  0
    3.3925   -4.5320    0.0000 C   0  0  0  0  0  0  0  0  0  0  0  0
    1.9738   -2.8984    0.0000 O   0  0  0  0  0  0  0  0  0  0  0  0
    1.9788   -4.5386    0.0000 O   0  0  0  0  0  0  0  0  0  0  0  0
    1.2696   -4.1327    0.0000 C   0  0  0  0  0  0  0  0  0  0  0  0
    4.7986   -7.8063    0.0000 O   0  0  0  0  0  0  0  0  0  0  0  0
  1  2  1  0
  1  3  1  0
  2  4  1  0
  3  5  1  0
  4  6  1  0
  5  6  1  0
  7  8  1  0
  3  7  1  0
  2  9  1  0
  6 10  1  0
 10  8  1  0
  8  9  1  0
 11 12  2  0
 12 13  1  0
 13 14  2  0
 14 15  1  0
 15 16  2  0
 16 11  1  0
 15 17  1  0
 13  8  1  0
  2 18  1  0
  3 19  1  0
  6 20  1  0
 14 21  1  0
 12 22  1  0
 11 23  1  0
 23 24  1  0
 23 25  1  0
 24 26  1  0
 26 27  2  0
 27 28  1  0
 28 29  2  0
 29 30  1  0
 30 31  2  0
 31 26  1  0
 29 32  1  0
 30 33  1  0
 33 34  1  0
 22 35  1  0
M  END
> <chembl_id>
CHEMBL4759473

> <chembl_pref_name>
None

$$$$
CHEMBL4452337
     RDKit          2D

 23 26  0  0  0  0  0  0  0  0999 V2000
   31.9226   -8.7283    0.0000 N   0  0  0  0  0  0  0  0  0  0  0  0
   31.2596   -8.2462    0.0000 N   0  0  0  0  0  0  0  0  0  0  0  0
   30.6009   -8.7283    0.0000 C   0  0  0  0  0  0  0  0  0  0  0  0
   31.6682   -9.5050    0.0000 C   0  0  0  0  0  0  0  0  0  0  0  0
   30.8510   -9.5050    0.0000 N   0  0  0  0  0  0  0  0  0  0  0  0
   30.5984  -10.2822    0.0000 N   0  0  0  0  0  0  0  0  0  0  0  0
   31.2596  -10.7626    0.0000 C   0  0  0  0  0  0  0  0  0  0  0  0
   31.9206  -10.2822    0.0000 S   0  0  0  0  0  0  0  0  0  0  0  0
   31.2596  -11.5798    0.0000 C   0  0  0  0  0  0  0  0  0  0  0  0
   30.5522  -11.9851    0.0000 C   0  0  0  0  0  0  0  0  0  0  0  0
   30.5519  -12.8016    0.0000 C   0  0  0  0  0  0  0  0  0  0  0  0
   31.2601  -13.2109    0.0000 C   0  0  0  0  0  0  0  0  0  0  0  0
   31.9702  -12.7979    0.0000 C   0  0  0  0  0  0  0  0  0  0  0  0
   31.9670  -11.9829    0.0000 C   0  0  0  0  0  0  0  0  0  0  0  0
   32.6727  -11.5709    0.0000 O   0  0  0  0  0  0  0  0  0  0  0  0
   33.3824  -11.9760    0.0000 C   0  0  0  0  0  0  0  0  0  0  0  0
   34.0881  -11.5640    0.0000 C   0  0  0  0  0  0  0  0  0  0  0  0
   34.7978  -11.9692    0.0000 C   0  0  0  0  0  0  0  0  0  0  0  0
   34.7985  -12.7871    0.0000 C   0  0  0  0  0  0  0  0  0  0  0  0
   35.5041  -13.1922    0.0000 C   0  0  0  0  0  0  0  0  0  0  0  0
   36.2123  -12.7837    0.0000 O   0  0  0  0  0  0  0  0  0  0  0  0
   36.2103  -11.9655    0.0000 C   0  0  0  0  0  0  0  0  0  0  0  0
   35.5002  -11.5559    0.0000 C   0  0  0  0  0  0  0  0  0  0  0  0
  4  1  2  0
  1  2  1  0
  2  3  2  0
  3  5  1  0
  4  5  1  0
  5  6  1  0
  6  7  2  0
  7  8  1  0
  8  4  1  0
  7  9  1  0
  9 10  2  0
 10 11  1  0
 11 12  2  0
 12 13  1  0
 13 14  2  0
 14  9  1  0
 14 15  1  0
 15 16  1  0
 16 17  1  0
 17 18  1  0
 18 19  1  0
 18 23  1  0
 19 20  1  0
 20 21  1  0
 21 22  1  0
 22 23  1  0
M  END
> <chembl_id>
CHEMBL4452337

> <chembl_pref_name>
None

$$$$
CHEMBL4474704
     RDKit          2D

 22 25  0  0  0  0  0  0  0  0999 V2000
   31.3159   -1.7905    0.0000 N   0  0  0  0  0  0  0  0  0  0  0  0
   30.6529   -1.3083    0.0000 N   0  0  0  0  0  0  0  0  0  0  0  0
   29.9942   -1.7905    0.0000 C   0  0  0  0  0  0  0  0  0  0  0  0
   31.0615   -2.5672    0.0000 C   0  0  0  0  0  0  0  0  0  0  0  0
   30.2443   -2.5672    0.0000 N   0  0  0  0  0  0  0  0  0  0  0  0
   29.9917   -3.3444    0.0000 N   0  0  0  0  0  0  0  0  0  0  0  0
   30.6529   -3.8248    0.0000 C   0  0  0  0  0  0  0  0  0  0  0  0
   31.3139   -3.3444    0.0000 S   0  0  0  0  0  0  0  0  0  0  0  0
   30.6529   -4.6420    0.0000 C   0  0  0  0  0  0  0  0  0  0  0  0
   29.9455   -5.0473    0.0000 C   0  0  0  0  0  0  0  0  0  0  0  0
   29.9452   -5.8637    0.0000 C   0  0  0  0  0  0  0  0  0  0  0  0
   30.6534   -6.2731    0.0000 C   0  0  0  0  0  0  0  0  0  0  0  0
   31.3635   -5.8601    0.0000 C   0  0  0  0  0  0  0  0  0  0  0  0
   31.3603   -5.0450    0.0000 C   0  0  0  0  0  0  0  0  0  0  0  0
   32.0660   -4.6330    0.0000 O   0  0  0  0  0  0  0  0  0  0  0  0
   32.7757   -5.0382    0.0000 C   0  0  0  0  0  0  0  0  0  0  0  0
   33.4814   -4.6262    0.0000 C   0  0  0  0  0  0  0  0  0  0  0  0
   34.1906   -5.0351    0.0000 C   0  0  0  0  0  0  0  0  0  0  0  0
   34.8943   -4.6266    0.0000 C   0  0  0  0  0  0  0  0  0  0  0  0
   34.8946   -3.8090    0.0000 O   0  0  0  0  0  0  0  0  0  0  0  0
   34.1850   -3.4017    0.0000 C   0  0  0  0  0  0  0  0  0  0  0  0
   33.4752   -3.8118    0.0000 C   0  0  0  0  0  0  0  0  0  0  0  0
  4  1  2  0
  1  2  1  0
  2  3  2  0
  3  5  1  0
  4  5  1  0
  5  6  1  0
  6  7  2  0
  7  8  1  0
  8  4  1  0
  7  9  1  0
  9 10  2  0
 10 11  1  0
 11 12  2  0
 12 13  1  0
 13 14  2  0
 14  9  1  0
 14 15  1  0
 15 16  1  0
 16 17  1  0
 17 18  1  0
 17 22  1  0
 18 19  1  0
 19 20  1  0
 20 21  1  0
 21 22  1  0
M  END
> <chembl_id>
CHEMBL4474704

> <chembl_pref_name>
None

$$$$
CHEMBL3985047
     RDKit          2D

 26 30  0  0  0  0  0  0  0  0999 V2000
   14.6545  -14.9038    0.0000 N   0  0  0  0  0  0  0  0  0  0  0  0
   13.9439  -15.3067    0.0000 N   0  0  0  0  0  0  0  0  0  0  0  0
   14.6328  -17.3553    0.0000 C   0  0  0  0  0  0  0  0  0  0  0  0
   13.9180  -17.7581    0.0000 N   0  0  0  0  0  0  0  0  0  0  0  0
   13.2147  -17.3397    0.0000 C   0  0  0  0  0  0  0  0  0  0  0  0
   13.2219  -16.5225    0.0000 C   0  0  0  0  0  0  0  0  0  0  0  0
   13.9367  -16.1238    0.0000 C   0  0  0  0  0  0  0  0  0  0  0  0
   14.6400  -16.5381    0.0000 N   0  0  0  0  0  0  0  0  0  0  0  0
   12.4483  -16.2653    0.0000 C   0  0  0  0  0  0  0  0  0  0  0  0
   11.9631  -16.9218    0.0000 C   0  0  0  0  0  0  0  0  0  0  0  0
   12.4381  -17.5876    0.0000 S   0  0  0  0  0  0  0  0  0  0  0  0
   11.1498  -16.8306    0.0000 C   0  0  0  0  0  0  0  0  0  0  0  0
   10.8258  -16.0788    0.0000 C   0  0  0  0  0  0  0  0  0  0  0  0
   11.3110  -15.4222    0.0000 C   0  0  0  0  0  0  0  0  0  0  0  0
   12.1243  -15.5176    0.0000 C   0  0  0  0  0  0  0  0  0  0  0  0
   14.6618  -14.0867    0.0000 C   0  0  0  0  0  0  0  0  0  0  0  0
   13.9584  -13.6724    0.0000 C   0  0  0  0  0  0  0  0  0  0  0  0
   15.4677  -12.8706    0.0000 N   0  0  0  0  0  0  0  0  0  0  0  0
   15.3724  -13.6839    0.0000 C   0  0  0  0  0  0  0  0  0  0  0  0
   16.1150  -14.0204    0.0000 C   0  0  0  0  0  0  0  0  0  0  0  0
   16.6672  -13.4216    0.0000 C   0  0  0  0  0  0  0  0  0  0  0  0
   17.4843  -13.4288    0.0000 C   0  0  0  0  0  0  0  0  0  0  0  0
   17.9027  -12.7255    0.0000 C   0  0  0  0  0  0  0  0  0  0  0  0
   17.4999  -12.0107    0.0000 C   0  0  0  0  0  0  0  0  0  0  0  0
   16.6827  -12.0035    0.0000 C   0  0  0  0  0  0  0  0  0  0  0  0
   16.2684  -12.7110    0.0000 C   0  0  0  0  0  0  0  0  0  0  0  0
  1  2  1  0
  3  4  1  0
  4  5  2  0
  5  6  1  0
  6  7  2  0
  7  8  1  0
  3  8  2  0
  9 10  2  0
 10 11  1  0
 12 13  1  0
 13 14  1  0
 14 15  1  0
  9 15  1  0
 10 12  1  0
  5 11  1  0
  6  9  1  0
  2  7  1  0
 16 17  1  0
 18 19  1  0
 19 20  2  0
 20 21  1  0
 21 22  1  0
 22 23  2  0
 23 24  1  0
 24 25  2  0
 25 26  1  0
 18 26  1  0
 21 26  2  0
 16 19  1  0
  1 16  2  0
M  END
> <chembl_id>
CHEMBL3985047

> <chembl_pref_name>
None

$$$$
CHEMBL3975416
     RDKit          2D

 24 27  0  0  0  0  0  0  0  0999 V2000
   12.7109  -10.1793    0.0000 C   0  0  0  0  0  0  0  0  0  0  0  0
   13.4125   -9.7621    0.0000 C   0  0  0  0  0  0  0  0  0  0  0  0
   14.1247  -10.1619    0.0000 C   0  0  0  0  0  0  0  0  0  0  0  0
   14.8264   -9.7447    0.0000 C   0  0  0  0  0  0  0  0  0  0  0  0
   14.8157   -8.9276    0.0000 C   0  0  0  0  0  0  0  0  0  0  0  0
   14.1035   -8.5277    0.0000 C   0  0  0  0  0  0  0  0  0  0  0  0
   13.4018   -8.9449    0.0000 C   0  0  0  0  0  0  0  0  0  0  0  0
   11.9945   -9.7794    0.0000 O   0  0  0  0  0  0  0  0  0  0  0  0
   12.7174  -10.9964    0.0000 N   0  0  0  0  0  0  0  0  0  0  0  0
   12.0157  -11.4136    0.0000 N   0  0  0  0  0  0  0  0  0  0  0  0
   12.7493  -13.4477    0.0000 C   0  0  0  0  0  0  0  0  0  0  0  0
   12.0435  -13.8649    0.0000 N   0  0  0  0  0  0  0  0  0  0  0  0
   11.3312  -13.4650    0.0000 C   0  0  0  0  0  0  0  0  0  0  0  0
   11.3247  -12.6479    0.0000 C   0  0  0  0  0  0  0  0  0  0  0  0
   12.0264  -12.2307    0.0000 C   0  0  0  0  0  0  0  0  0  0  0  0
   12.7386  -12.6306    0.0000 N   0  0  0  0  0  0  0  0  0  0  0  0
   10.5430  -12.4032    0.0000 C   0  0  0  0  0  0  0  0  0  0  0  0
   10.0708  -13.0709    0.0000 C   0  0  0  0  0  0  0  0  0  0  0  0
   10.5587  -13.7254    0.0000 S   0  0  0  0  0  0  0  0  0  0  0  0
    9.2548  -12.9933    0.0000 C   0  0  0  0  0  0  0  0  0  0  0  0
    8.9152  -12.2521    0.0000 C   0  0  0  0  0  0  0  0  0  0  0  0
    9.3874  -11.5844    0.0000 C   0  0  0  0  0  0  0  0  0  0  0  0
   10.1993  -11.6620    0.0000 C   0  0  0  0  0  0  0  0  0  0  0  0
   14.1354  -10.9790    0.0000 O   0  0  0  0  0  0  0  0  0  0  0  0
  1  2  1  0
  2  3  1  0
  3  4  2  0
  4  5  1  0
  5  6  2  0
  6  7  1  0
  2  7  2  0
  1  8  2  0
  9 10  1  0
 11 12  1  0
 12 13  2  0
 13 14  1  0
 14 15  2  0
 15 16  1  0
 11 16  2  0
 17 18  2  0
 18 19  1  0
 20 21  1  0
 21 22  1  0
 22 23  1  0
 17 23  1  0
 18 20  1  0
 13 19  1  0
 14 17  1  0
 10 15  1  0
  1  9  1  0
  3 24  1  0
M  END
> <chembl_id>
CHEMBL3975416

> <chembl_pref_name>
None

$$$$
CHEMBL2059077
     RDKit          2D

 40 44  0  0  0  0  0  0  0  0999 V2000
    5.5418   -3.5918    0.0000 O   0  0  0  0  0  0  0  0  0  0  0  0
    6.2641   -4.0036    0.0000 C   0  0  0  0  0  0  0  0  0  0  0  0
    6.9712   -3.5818    0.0000 C   0  0  0  0  0  0  0  0  0  0  0  0
    6.9666   -2.7588    0.0000 O   0  0  0  0  0  0  0  0  0  0  0  0
    7.6872   -3.9935    0.0000 C   0  0  0  0  0  0  0  0  0  0  0  0
    8.3942   -3.5759    0.0000 O   0  0  0  0  0  0  0  0  0  0  0  0
    7.6918   -4.8165    0.0000 C   0  0  0  0  0  0  0  0  0  0  0  0
    8.4049   -5.2200    0.0000 O   0  0  0  0  0  0  0  0  0  0  0  0
    6.9846   -5.2319    0.0000 C   0  0  0  0  0  0  0  0  0  0  0  0
    6.2687   -4.8266    0.0000 O   0  0  0  0  0  0  0  0  0  0  0  0
    6.9907   -6.0531    0.0000 C   0  0  0  0  0  0  0  0  0  0  0  0
    6.2772   -6.4686    0.0000 O   0  0  0  0  0  0  0  0  0  0  0  0
    3.4338   -1.8235    0.0000 C   0  0  0  0  0  0  0  0  0  0  0  0
    4.2653   -1.8371    0.0000 C   0  0  0  0  0  0  0  0  0  0  0  0
    4.5037   -2.6224    0.0000 C   0  0  0  0  0  0  0  0  0  0  0  0
    5.3018   -2.8095    0.0000 C   0  0  0  0  0  0  0  0  0  0  0  0
    5.8639   -2.2055    0.0000 O   0  0  0  0  0  0  0  0  0  0  0  0
    5.6264   -1.4181    0.0000 C   0  0  0  0  0  0  0  0  0  0  0  0
    4.8195   -1.2304    0.0000 C   0  0  0  0  0  0  0  0  0  0  0  0
    3.8309   -3.0983    0.0000 C   0  0  0  0  0  0  0  0  0  0  0  0
    3.1653   -2.6108    0.0000 C   0  0  0  0  0  0  0  0  0  0  0  0
    3.0730   -3.4272    0.0000 O   0  0  0  0  0  0  0  0  0  0  0  0
    4.2450   -3.8146    0.0000 C   0  0  0  0  0  0  0  0  0  0  0  0
    3.8274   -4.5293    0.0000 O   0  0  0  0  0  0  0  0  0  0  0  0
    2.9604   -1.1528    0.0000 O   0  0  0  0  0  0  0  0  0  0  0  0
    3.3633   -0.4303    0.0000 C   0  0  0  0  0  0  0  0  0  0  0  0
    2.9418    0.2835    0.0000 C   0  0  0  0  0  0  0  0  0  0  0  0
    4.1932   -0.4216    0.0000 O   0  0  0  0  0  0  0  0  0  0  0  0
    3.3536    1.0026    0.0000 C   0  0  0  0  0  0  0  0  0  0  0  0
    2.9316    1.7120    0.0000 C   0  0  0  0  0  0  0  0  0  0  0  0
    2.1039    1.7043    0.0000 C   0  0  0  0  0  0  0  0  0  0  0  0
    1.7005    0.9841    0.0000 C   0  0  0  0  0  0  0  0  0  0  0  0
    2.1205    0.2740    0.0000 C   0  0  0  0  0  0  0  0  0  0  0  0
    3.3396    2.4278    0.0000 O   0  0  0  0  0  0  0  0  0  0  0  0
    1.6856    2.4169    0.0000 O   0  0  0  0  0  0  0  0  0  0  0  0
    4.6672   -3.4307    0.0000 H   0  0  0  0  0  0  0  0  0  0  0  0
    3.9383   -1.0784    0.0000 H   0  0  0  0  0  0  0  0  0  0  0  0
    2.3670   -2.4294    0.0000 H   0  0  0  0  0  0  0  0  0  0  0  0
    2.0929    3.1332    0.0000 C   0  0  0  0  0  0  0  0  0  0  0  0
    6.2579   -3.1769    0.0000 H   0  0  0  0  0  0  0  0  0  0  0  0
  2  1  1  0
  2  3  1  0
  3  4  1  6
  3  5  1  0
  5  6  1  1
  5  7  1  0
  7  8  1  6
  7  9  1  0
  9 10  1  0
  9 11  1  1
 11 12  1  0
  2 10  1  0
 20 15  1  0
 14 13  1  0
 13 21  1  0
 14 15  1  0
 14 19  1  0
 15 16  1  0
 16 17  1  0
 17 18  1  0
 18 19  2  0
 21 20  1  0
 22 21  1  0
 20 22  1  0
 20 23  1  6
 23 24  1  0
 13 25  1  1
 25 26  1  0
 26 27  1  0
 26 28  2  0
 27 29  2  0
 29 30  1  0
 30 31  2  0
 31 32  1  0
 32 33  2  0
 33 27  1  0
 30 34  1  0
 31 35  1  0
 16  1  1  1
 15 36  1  1
 14 37  1  1
 21 38  1  6
 35 39  1  0
  2 40  1  6
M  END
> <chembl_id>
CHEMBL2059077

> <chembl_pref_name>
ISOVANILLYL CATAPOL

$$$$
CHEMBL2011807
     RDKit          2D

 20 21  0  0  0  0  0  0  0  0999 V2000
   -0.6304   -3.2199    0.0000 C   0  0  0  0  0  0  0  0  0  0  0  0
   -0.6316   -4.0470    0.0000 C   0  0  0  0  0  0  0  0  0  0  0  0
    0.0831   -4.4597    0.0000 C   0  0  0  0  0  0  0  0  0  0  0  0
    0.7993   -4.0465    0.0000 C   0  0  0  0  0  0  0  0  0  0  0  0
    0.7964   -3.2163    0.0000 C   0  0  0  0  0  0  0  0  0  0  0  0
    0.0813   -2.8072    0.0000 C   0  0  0  0  0  0  0  0  0  0  0  0
    1.5092   -2.8012    0.0000 N   0  0  0  0  0  0  0  0  0  0  0  0
   -1.3448   -2.8077    0.0000 N   0  0  0  0  0  0  0  0  0  0  0  0
   -2.0589   -3.2202    0.0000 C   0  0  0  0  0  0  0  0  0  0  0  0
   -2.7733   -2.8080    0.0000 N   0  0  0  0  0  0  0  0  0  0  0  0
   -2.0587   -4.0449    0.0000 O   0  0  0  0  0  0  0  0  0  0  0  0
   -3.4875   -3.2206    0.0000 C   0  0  0  0  0  0  0  0  0  0  0  0
   -4.2013   -2.8066    0.0000 C   0  0  0  0  0  0  0  0  0  0  0  0
   -4.9150   -3.2185    0.0000 C   0  0  0  0  0  0  0  0  0  0  0  0
   -4.9153   -4.0440    0.0000 C   0  0  0  0  0  0  0  0  0  0  0  0
   -4.1959   -4.4561    0.0000 C   0  0  0  0  0  0  0  0  0  0  0  0
   -3.4851   -4.0419    0.0000 C   0  0  0  0  0  0  0  0  0  0  0  0
   -4.2004   -1.9818    0.0000 C   0  0  0  0  0  0  0  0  0  0  0  0
    1.5082   -1.9750    0.0000 O   0  0  0  0  0  0  0  0  0  0  0  0
    2.2271   -3.2095    0.0000 O   0  0  0  0  0  0  0  0  0  0  0  0
  9 10  1  0
  2  3  1  0
  9 11  2  0
  5  6  2  0
 10 12  1  0
  6  1  1  0
 12 13  2  0
  1  2  2  0
 13 14  1  0
  5  7  1  0
 14 15  2  0
  3  4  2  0
 15 16  1  0
  1  8  1  0
 16 17  2  0
 17 12  1  0
 13 18  1  0
  8  9  1  0
  4  5  1  0
  7 19  2  0
  7 20  1  0
M  CHG  2   7   1  20  -1
M  END
> <chembl_id>
CHEMBL2011807

> <chembl_pref_name>
None

$$$$
CHEMBL3120365
     RDKit          2D

 22 24  0  0  0  0  0  0  0  0999 V2000
    3.9690  -18.7335    0.0000 C   0  0  0  0  0  0  0  0  0  0  0  0
    3.9678  -19.5489    0.0000 C   0  0  0  0  0  0  0  0  0  0  0  0
    4.6800  -19.9578    0.0000 C   0  0  0  0  0  0  0  0  0  0  0  0
    4.6782  -18.3246    0.0000 C   0  0  0  0  0  0  0  0  0  0  0  0
    5.3827  -18.7299    0.0000 C   0  0  0  0  0  0  0  0  0  0  0  0
    5.3830  -19.5489    0.0000 C   0  0  0  0  0  0  0  0  0  0  0  0
    6.1618  -19.7990    0.0000 N   0  0  0  0  0  0  0  0  0  0  0  0
    6.6373  -19.1452    0.0000 C   0  0  0  0  0  0  0  0  0  0  0  0
    6.1614  -18.4794    0.0000 C   0  0  0  0  0  0  0  0  0  0  0  0
    6.4137  -17.6980    0.0000 C   0  0  0  0  0  0  0  0  0  0  0  0
    7.2088  -17.5279    0.0000 C   0  0  0  0  0  0  0  0  0  0  0  0
    7.4611  -16.7506    0.0000 O   0  0  0  0  0  0  0  0  0  0  0  0
    7.7558  -18.1350    0.0000 O   0  0  0  0  0  0  0  0  0  0  0  0
    6.4104  -20.5802    0.0000 C   0  0  0  0  0  0  0  0  0  0  0  0
    7.2092  -20.7543    0.0000 C   0  0  0  0  0  0  0  0  0  0  0  0
    7.4600  -21.5283    0.0000 C   0  0  0  0  0  0  0  0  0  0  0  0
    8.2550  -21.7016    0.0000 C   0  0  0  0  0  0  0  0  0  0  0  0
    8.8047  -21.1012    0.0000 C   0  0  0  0  0  0  0  0  0  0  0  0
    8.5522  -20.3200    0.0000 C   0  0  0  0  0  0  0  0  0  0  0  0
    7.7579  -20.1454    0.0000 C   0  0  0  0  0  0  0  0  0  0  0  0
    3.2523  -19.9675    0.0000 Cl  0  0  0  0  0  0  0  0  0  0  0  0
    9.1036  -19.7179    0.0000 Cl  0  0  0  0  0  0  0  0  0  0  0  0
  1  2  2  0
  2  3  1  0
  3  6  2  0
  5  4  2  0
  4  1  1  0
  5  6  1  0
  6  7  1  0
  7  8  1  0
  8  9  2  0
  9  5  1  0
  9 10  1  0
 10 11  1  0
 11 12  2  0
 11 13  1  0
  7 14  1  0
 14 15  1  0
 15 16  2  0
 16 17  1  0
 17 18  2  0
 18 19  1  0
 19 20  2  0
 20 15  1  0
  2 21  1  0
 19 22  1  0
M  END
> <chembl_id>
CHEMBL3120365

> <chembl_pref_name>
None

$$$$
CHEMBL1253550
     RDKit          2D

 11 11  0  0  0  0  0  0  0  0999 V2000
   11.0376  -21.6235    0.0000 C   0  0  0  0  0  0  0  0  0  0  0  0
   10.1832  -21.6455    0.0000 C   0  0  0  0  0  0  0  0  0  0  0  0
    9.7041  -22.2977    0.0000 C   0  0  0  0  0  0  0  0  0  0  0  0
   11.5617  -22.2735    0.0000 C   0  0  0  0  0  0  0  0  0  0  0  0
   11.3721  -23.0761    0.0000 C   0  0  0  0  0  0  0  0  0  0  0  0
   10.5929  -23.4440    0.0000 C   0  0  0  0  0  0  0  0  0  0  0  0
    9.8816  -23.0924    0.0000 C   0  0  0  0  0  0  0  0  0  0  0  0
    9.7991  -20.9102    0.0000 O   0  0  0  0  0  0  0  0  0  0  0  0
   11.3854  -20.8704    0.0000 O   0  0  0  0  0  0  0  0  0  0  0  0
   12.3871  -22.2719    0.0000 Br  0  0  0  0  0  0  0  0  0  0  0  0
    8.8710  -22.2904    0.0000 Br  0  0  0  0  0  0  0  0  0  0  0  0
  5  6  2  0
  6  7  1  0
  7  3  2  0
  4  5  1  0
  2  8  2  0
  1  2  1  0
  1  9  1  0
  2  3  1  0
  4 10  1  0
  1  4  2  0
  3 11  1  0
M  END
> <chembl_id>
CHEMBL1253550

> <chembl_pref_name>
None

$$$$
CHEMBL46686
     RDKit          2D

 26 29  0  0  0  0  0  0  0  0999 V2000
    8.2792   -7.0667    0.0000 C   0  0  0  0  0  0  0  0  0  0  0  0
    3.2792   -6.6167    0.0000 C   0  0  0  0  0  0  0  0  0  0  0  0
    3.2792   -5.7917    0.0000 N   0  0  0  0  0  0  0  0  0  0  0  0
    9.0292   -6.7375    0.0000 N   0  0  0  0  0  0  0  0  0  0  0  0
    8.3542   -7.8875    0.0000 N   0  0  0  0  0  0  0  0  0  0  0  0
    2.5542   -7.0292    0.0000 N   0  0  0  0  0  0  0  0  0  0  0  0
    3.9792   -7.0375    0.0000 N   0  0  0  0  0  0  0  0  0  0  0  0
    7.5667   -6.6500    0.0000 N   0  0  0  0  0  0  0  0  0  0  0  0
    2.5667   -5.3792    0.0000 C   0  0  0  0  0  0  0  0  0  0  0  0
    9.5792   -7.3542    0.0000 C   0  0  0  0  0  0  0  0  0  0  0  0
    1.8542   -5.7917    0.0000 C   0  0  0  0  0  0  0  0  0  0  0  0
    9.1667   -8.0625    0.0000 C   0  0  0  0  0  0  0  0  0  0  0  0
    4.7042   -6.6292    0.0000 C   0  0  0  0  0  0  0  0  0  0  0  0
    6.8417   -7.0542    0.0000 C   0  0  0  0  0  0  0  0  0  0  0  0
    4.7042   -5.8042    0.0000 O   0  0  0  0  0  0  0  0  0  0  0  0
    6.8417   -7.8792    0.0000 O   0  0  0  0  0  0  0  0  0  0  0  0
    6.1292   -6.6375    0.0000 C   0  0  0  0  0  0  0  0  0  0  0  0
    5.4167   -7.0417    0.0000 C   0  0  0  0  0  0  0  0  0  0  0  0
    2.5667   -4.5542    0.0000 C   0  0  0  0  0  0  0  0  0  0  0  0
   10.4042   -7.3542    0.0000 C   0  0  0  0  0  0  0  0  0  0  0  0
    9.5667   -8.7750    0.0000 C   0  0  0  0  0  0  0  0  0  0  0  0
    1.1417   -5.3792    0.0000 C   0  0  0  0  0  0  0  0  0  0  0  0
    1.8542   -4.1417    0.0000 C   0  0  0  0  0  0  0  0  0  0  0  0
   10.3917   -8.7792    0.0000 C   0  0  0  0  0  0  0  0  0  0  0  0
   10.8042   -8.0667    0.0000 C   0  0  0  0  0  0  0  0  0  0  0  0
    1.1417   -4.5542    0.0000 C   0  0  0  0  0  0  0  0  0  0  0  0
  2  7  1  0
  3  2  2  0
  4  1  2  0
  5  1  1  0
  6  2  1  0
  7 13  1  0
  8  1  1  0
  9  3  1  0
 10  4  1  0
 11  6  1  0
 12  5  1  0
 13 18  1  0
 14  8  1  0
 15 13  2  0
 16 14  2  0
 17 14  1  0
 18 17  1  0
 19  9  1  0
 20 10  1  0
 21 12  1  0
 22 11  1  0
 23 19  2  0
 24 21  2  0
 25 20  2  0
 26 22  2  0
 10 12  2  0
 24 25  1  0
  9 11  2  0
 23 26  1  0
M  END
> <chembl_id>
CHEMBL46686

> <chembl_pref_name>
None

$$$$
CHEMBL463914
     RDKit          2D

 30 32  0  0  0  0  0  0  0  0999 V2000
    7.7501   -2.1220    0.0000 C   0  0  0  0  0  0  0  0  0  0  0  0
    7.7501   -2.9515    0.0000 C   0  0  0  0  0  0  0  0  0  0  0  0
    8.4646   -3.3640    0.0000 C   0  0  0  0  0  0  0  0  0  0  0  0
    9.1835   -2.9515    0.0000 C   0  0  0  0  0  0  0  0  0  0  0  0
    9.1835   -2.1220    0.0000 C   0  0  0  0  0  0  0  0  0  0  0  0
    8.4646   -1.7049    0.0000 C   0  0  0  0  0  0  0  0  0  0  0  0
    8.4634   -0.8800    0.0000 C   0  0  0  0  0  0  0  0  0  0  0  0
    9.1773   -0.4665    0.0000 C   0  0  0  0  0  0  0  0  0  0  0  0
    9.1762    0.3585    0.0000 C   0  0  0  0  0  0  0  0  0  0  0  0
    7.7456   -1.2971    0.0000 C   0  0  0  0  0  0  0  0  0  0  0  0
    7.0369   -2.5365    0.0000 C   0  0  0  0  0  0  0  0  0  0  0  0
    9.8984   -1.7102    0.0000 C   0  0  0  0  0  0  0  0  0  0  0  0
    9.8900    0.7719    0.0000 C   0  0  0  0  0  0  0  0  0  0  0  0
    8.4611    0.7700    0.0000 C   0  0  0  0  0  0  0  0  0  0  0  0
    9.8888    1.5969    0.0000 C   0  0  0  0  0  0  0  0  0  0  0  0
   10.6027    2.0104    0.0000 C   0  0  0  0  0  0  0  0  0  0  0  0
   11.3178    1.5989    0.0000 C   0  0  0  0  0  0  0  0  0  0  0  0
   11.3150    0.7736    0.0000 C   0  0  0  0  0  0  0  0  0  0  0  0
   12.0259    0.3622    0.0000 C   0  0  0  0  0  0  0  0  0  0  0  0
   12.7422    0.7722    0.0000 C   0  0  0  0  0  0  0  0  0  0  0  0
   12.7430    1.5981    0.0000 O   0  0  0  0  0  0  0  0  0  0  0  0
   12.0276    2.0140    0.0000 C   0  0  0  0  0  0  0  0  0  0  0  0
   12.0265    2.8390    0.0000 O   0  0  0  0  0  0  0  0  0  0  0  0
   13.4556    0.3579    0.0000 C   0  0  0  0  0  0  0  0  0  0  0  0
   13.5435   -0.4581    0.0000 C   0  0  0  0  0  0  0  0  0  0  0  0
   14.3501   -0.6316    0.0000 C   0  0  0  0  0  0  0  0  0  0  0  0
   14.7643    0.0819    0.0000 O   0  0  0  0  0  0  0  0  0  0  0  0
   14.2137    0.6962    0.0000 C   0  0  0  0  0  0  0  0  0  0  0  0
   14.3858    1.5030    0.0000 O   0  0  0  0  0  0  0  0  0  0  0  0
   14.6839   -1.3861    0.0000 O   0  0  0  0  0  0  0  0  0  0  0  0
 13 15  1  0
  1  2  1  0
 15 16  1  0
  7  8  1  0
 16 17  1  0
 17 18  2  0
  1  6  1  0
  8  9  1  0
  2  3  1  0
  1 10  1  0
  3  4  1  0
 17 22  1  0
 18 19  1  0
 19 20  1  0
 20 21  1  0
 21 22  1  0
  1 11  1  0
 22 23  1  6
  4  5  1  0
 20 24  1  1
 24 25  2  0
  5 12  1  0
  5  6  2  0
  9 13  2  0
 25 26  1  0
 26 27  1  0
 27 28  1  0
 28 24  1  0
  9 14  1  0
 28 29  1  6
  6  7  1  0
 26 30  2  0
M  END
> <chembl_id>
CHEMBL463914

> <chembl_pref_name>
MANOALIDE

$$$$
CHEMBL511822
     RDKit          2D

 34 38  0  0  0  0  0  0  0  0999 V2000
   -4.2941   -1.5623    0.0000 C   0  0  0  0  0  0  0  0  0  0  0  0
   -4.2941   -2.3892    0.0000 C   0  0  0  0  0  0  0  0  0  0  0  0
   -3.5819   -2.8003    0.0000 C   0  0  0  0  0  0  0  0  0  0  0  0
   -3.5819   -1.1466    0.0000 C   0  0  0  0  0  0  0  0  0  0  0  0
   -2.8654   -1.5623    0.0000 C   0  0  0  0  0  0  0  0  0  0  0  0
   -2.8689   -2.3892    0.0000 C   0  0  0  0  0  0  0  0  0  0  0  0
   -2.1585   -2.8033    0.0000 C   0  0  0  0  0  0  0  0  0  0  0  0
   -1.4401   -2.3952    0.0000 C   0  0  0  0  0  0  0  0  0  0  0  0
   -2.1514   -1.1496    0.0000 C   0  0  0  0  0  0  0  0  0  0  0  0
   -1.4391   -1.5698    0.0000 C   0  0  0  0  0  0  0  0  0  0  0  0
   -1.4256    0.0814    0.0000 C   0  0  0  0  0  0  0  0  0  0  0  0
   -2.1478   -0.3250    0.0000 C   0  0  0  0  0  0  0  0  0  0  0  0
   -0.7132   -0.3388    0.0000 C   0  0  0  0  0  0  0  0  0  0  0  0
   -0.7263   -1.1649    0.0000 C   0  0  0  0  0  0  0  0  0  0  0  0
   -0.0214   -1.5869    0.0000 C   0  0  0  0  0  0  0  0  0  0  0  0
    0.7011   -1.1876    0.0000 C   0  0  0  0  0  0  0  0  0  0  0  0
    0.0049    0.0652    0.0000 C   0  0  0  0  0  0  0  0  0  0  0  0
    0.7130   -0.3626    0.0000 C   0  0  0  0  0  0  0  0  0  0  0  0
    1.4335    0.0344    0.0000 C   0  0  0  0  0  0  0  0  0  0  0  0
    1.4522    0.8610    0.0000 C   0  0  0  0  0  0  0  0  0  0  0  0
    0.7442    1.2888    0.0000 C   0  0  0  0  0  0  0  0  0  0  0  0
    0.0174    0.8901    0.0000 C   0  0  0  0  0  0  0  0  0  0  0  0
   -5.0062   -2.8003    0.0000 O   0  0  0  0  0  0  0  0  0  0  0  0
   -4.0017   -3.5084    0.0000 C   0  0  0  0  0  0  0  0  0  0  0  0
   -3.3759   -3.5906    0.0000 C   0  0  0  0  0  0  0  0  0  0  0  0
   -2.8734   -0.7400    0.0000 C   0  0  0  0  0  0  0  0  0  0  0  0
   -2.8734   -3.2069    0.0000 H   0  0  0  0  0  0  0  0  0  0  0  0
   -2.1562   -1.9689    0.0000 H   0  0  0  0  0  0  0  0  0  0  0  0
   -1.4481   -0.7447    0.0000 C   0  0  0  0  0  0  0  0  0  0  0  0
   -0.7217    0.4843    0.0000 C   0  0  0  0  0  0  0  0  0  0  0  0
    0.0000   -0.7538    0.0000 H   0  0  0  0  0  0  0  0  0  0  0  0
    1.4207   -0.7721    0.0000 C   0  0  0  0  0  0  0  0  0  0  0  0
    1.1466    2.0055    0.0000 C   0  0  0  0  0  0  0  0  0  0  0  0
    0.5254    2.0877    0.0000 C   0  0  0  0  0  0  0  0  0  0  0  0
 14 15  2  0
 15 16  1  0
 16 18  1  0
 17 18  1  0
  6  7  1  0
  7  8  1  0
  8 10  1  0
  9 10  1  0
  3  6  1  0
  5  4  1  0
 17 22  1  0
 18 19  1  0
 19 20  1  0
 20 21  1  0
 21 22  1  0
  5  6  1  0
  2 23  1  1
  3 24  1  0
  9 12  1  0
  3 25  1  0
 10 14  1  0
  5 26  1  1
 13 11  1  0
  6 27  1  6
 11 12  1  0
  9 28  1  6
 13 14  1  0
 10 29  1  1
  1  2  1  0
 13 30  1  6
  1  4  1  0
 17 31  1  1
  2  3  1  0
 18 32  1  1
  5  9  1  0
 21 33  1  0
 13 17  1  0
 21 34  1  0
M  END
> <chembl_id>
CHEMBL511822

> <chembl_pref_name>
TARAXEROL

$$$$
CHEMBL4562725
     RDKit          2D

 21 24  0  0  0  0  0  0  0  0999 V2000
   13.8701   -8.5302    0.0000 N   0  0  0  0  0  0  0  0  0  0  0  0
   13.2071   -8.0481    0.0000 N   0  0  0  0  0  0  0  0  0  0  0  0
   12.5484   -8.5302    0.0000 C   0  0  0  0  0  0  0  0  0  0  0  0
   13.6157   -9.3069    0.0000 C   0  0  0  0  0  0  0  0  0  0  0  0
   12.7985   -9.3069    0.0000 N   0  0  0  0  0  0  0  0  0  0  0  0
   12.5459  -10.0841    0.0000 N   0  0  0  0  0  0  0  0  0  0  0  0
   13.2071  -10.5645    0.0000 C   0  0  0  0  0  0  0  0  0  0  0  0
   13.8682  -10.0841    0.0000 S   0  0  0  0  0  0  0  0  0  0  0  0
   13.2071  -11.3817    0.0000 C   0  0  0  0  0  0  0  0  0  0  0  0
   12.4997  -11.7870    0.0000 C   0  0  0  0  0  0  0  0  0  0  0  0
   12.4994  -12.6035    0.0000 C   0  0  0  0  0  0  0  0  0  0  0  0
   13.2076  -13.0128    0.0000 C   0  0  0  0  0  0  0  0  0  0  0  0
   13.9177  -12.5998    0.0000 N   0  0  0  0  0  0  0  0  0  0  0  0
   13.9145  -11.7847    0.0000 C   0  0  0  0  0  0  0  0  0  0  0  0
   14.6202  -11.3728    0.0000 O   0  0  0  0  0  0  0  0  0  0  0  0
   15.3299  -11.7779    0.0000 C   0  0  0  0  0  0  0  0  0  0  0  0
   15.3297  -12.5933    0.0000 C   0  0  0  0  0  0  0  0  0  0  0  0
   16.0385  -12.9984    0.0000 C   0  0  0  0  0  0  0  0  0  0  0  0
   16.7452  -12.5863    0.0000 C   0  0  0  0  0  0  0  0  0  0  0  0
   16.7387  -11.7649    0.0000 C   0  0  0  0  0  0  0  0  0  0  0  0
   16.0293  -11.3635    0.0000 C   0  0  0  0  0  0  0  0  0  0  0  0
  4  1  2  0
  1  2  1  0
  2  3  2  0
  3  5  1  0
  4  5  1  0
  5  6  1  0
  6  7  2  0
  7  8  1  0
  8  4  1  0
  7  9  1  0
  9 10  2  0
 10 11  1  0
 11 12  2  0
 12 13  1  0
 13 14  2  0
 14  9  1  0
 14 15  1  0
 15 16  1  0
 16 17  2  0
 17 18  1  0
 18 19  2  0
 19 20  1  0
 20 21  2  0
 21 16  1  0
M  END
> <chembl_id>
CHEMBL4562725

> <chembl_pref_name>
None

$$$$
CHEMBL1481011
     RDKit          2D

 35 38  0  0  0  0  0  0  0  0999 V2000
    2.7107   -1.1500    0.0000 S   0  0  0  0  0  0  0  0  0  0  0  0
    2.4369    1.4555    0.0000 O   0  0  0  0  0  0  0  0  0  0  0  0
    0.6812    1.8287    0.0000 O   0  0  0  0  0  0  0  0  0  0  0  0
   -0.5517   -0.4794    0.0000 O   0  0  0  0  0  0  0  0  0  0  0  0
   -0.4462    1.7264    0.0000 O   0  0  0  0  0  0  0  0  0  0  0  0
    2.3825   -1.3566    0.0000 O   0  0  0  0  0  0  0  0  0  0  0  0
   -0.7560   -2.3764    0.0000 O   0  0  0  0  0  0  0  0  0  0  0  0
    3.3683   -2.7426    0.0000 O   0  0  0  0  0  0  0  0  0  0  0  0
    4.6737   -2.1614    0.0000 O   0  0  0  0  0  0  0  0  0  0  0  0
    1.9100    0.0830    0.0000 N   0  0  0  0  0  0  0  0  0  0  0  0
    3.3781    0.0061    0.0000 N   0  0  0  0  0  0  0  0  0  0  0  0
    1.1563   -0.2525    0.0000 C   0  0  0  0  0  0  0  0  0  0  0  0
    0.6043    0.3606    0.0000 C   0  0  0  0  0  0  0  0  0  0  0  0
    1.8238    0.9035    0.0000 C   0  0  0  0  0  0  0  0  0  0  0  0
    1.0168    1.0750    0.0000 C   0  0  0  0  0  0  0  0  0  0  0  0
    0.9848   -1.0595    0.0000 C   0  0  0  0  0  0  0  0  0  0  0  0
    2.6245   -0.3295    0.0000 C   0  0  0  0  0  0  0  0  0  0  0  0
   -0.2162    0.2743    0.0000 C   0  0  0  0  0  0  0  0  0  0  0  0
    1.5979   -1.6115    0.0000 C   0  0  0  0  0  0  0  0  0  0  0  0
    3.5177   -1.3215    0.0000 C   0  0  0  0  0  0  0  0  0  0  0  0
   -0.7011    0.9418    0.0000 C   0  0  0  0  0  0  0  0  0  0  0  0
    3.9302   -0.6070    0.0000 C   0  0  0  0  0  0  0  0  0  0  0  0
    0.2002   -1.3144    0.0000 C   0  0  0  0  0  0  0  0  0  0  0  0
    0.0286   -2.1214    0.0000 C   0  0  0  0  0  0  0  0  0  0  0  0
    1.4264   -2.4185    0.0000 C   0  0  0  0  0  0  0  0  0  0  0  0
    3.8532   -2.0752    0.0000 C   0  0  0  0  0  0  0  0  0  0  0  0
   -1.5261    0.9418    0.0000 C   0  0  0  0  0  0  0  0  0  0  0  0
    0.6417   -2.6735    0.0000 C   0  0  0  0  0  0  0  0  0  0  0  0
   -1.1136    2.2113    0.0000 C   0  0  0  0  0  0  0  0  0  0  0  0
    4.7507   -0.5208    0.0000 C   0  0  0  0  0  0  0  0  0  0  0  0
   -1.7811    1.7264    0.0000 C   0  0  0  0  0  0  0  0  0  0  0  0
    2.9956   -1.9086    0.0000 C   0  0  0  0  0  0  0  0  0  0  0  0
   -1.1136    3.0363    0.0000 C   0  0  0  0  0  0  0  0  0  0  0  0
   -0.9275   -3.1833    0.0000 C   0  0  0  0  0  0  0  0  0  0  0  0
    3.7039   -3.4963    0.0000 C   0  0  0  0  0  0  0  0  0  0  0  0
  1 17  1  0
  1 20  1  0
  2 14  2  0
  3 15  1  0
  4 18  2  0
  5 21  1  0
  5 29  1  0
  6 19  1  0
  6 32  1  0
  7 24  1  0
  7 34  1  0
  8 26  1  0
  8 35  1  0
  9 26  2  0
 10 12  1  0
 10 14  1  0
 10 17  1  0
 11 17  2  0
 11 22  1  0
 12 13  1  0
 12 16  1  0
 13 15  2  0
 13 18  1  0
 14 15  1  0
 16 19  1  0
 16 23  2  0
 18 21  1  0
 19 25  2  0
 20 22  2  0
 20 26  1  0
 21 27  2  0
 22 30  1  0
 23 24  1  0
 24 28  2  0
 25 28  1  0
 27 31  1  0
 29 31  2  0
 29 33  1  0
M  END
> <chembl_id>
CHEMBL1481011

> <chembl_pref_name>
None

$$$$
CHEMBL2011805
     RDKit          2D

 27 31  0  0  0  0  0  0  0  0999 V2000
    6.2344    1.4725    0.0000 C   0  0  0  0  0  0  0  0  0  0  0  0
    6.2333    0.6442    0.0000 C   0  0  0  0  0  0  0  0  0  0  0  0
    6.9489    0.2308    0.0000 C   0  0  0  0  0  0  0  0  0  0  0  0
    6.9471    1.8856    0.0000 C   0  0  0  0  0  0  0  0  0  0  0  0
    7.6633    1.4761    0.0000 C   0  0  0  0  0  0  0  0  0  0  0  0
    7.6635    0.6488    0.0000 C   0  0  0  0  0  0  0  0  0  0  0  0
    8.4504    0.3933    0.0000 N   0  0  0  0  0  0  0  0  0  0  0  0
    8.9366    1.0628    0.0000 C   0  0  0  0  0  0  0  0  0  0  0  0
    8.4500    1.7320    0.0000 N   0  0  0  0  0  0  0  0  0  0  0  0
    9.7593    1.0619    0.0000 C   0  0  0  0  0  0  0  0  0  0  0  0
   10.1719    0.3452    0.0000 C   0  0  0  0  0  0  0  0  0  0  0  0
   10.9969    0.3452    0.0000 C   0  0  0  0  0  0  0  0  0  0  0  0
   11.4105    1.0610    0.0000 C   0  0  0  0  0  0  0  0  0  0  0  0
   10.9928    1.7785    0.0000 C   0  0  0  0  0  0  0  0  0  0  0  0
   10.1691    1.7750    0.0000 C   0  0  0  0  0  0  0  0  0  0  0  0
   12.2364    1.0624    0.0000 N   0  0  0  0  0  0  0  0  0  0  0  0
   12.6481    1.7784    0.0000 C   0  0  0  0  0  0  0  0  0  0  0  0
   13.4740    1.7798    0.0000 C   0  0  0  0  0  0  0  0  0  0  0  0
   12.2340    2.4930    0.0000 O   0  0  0  0  0  0  0  0  0  0  0  0
   13.9572    1.1117    0.0000 C   0  0  0  0  0  0  0  0  0  0  0  0
   13.9549    2.4479    0.0000 O   0  0  0  0  0  0  0  0  0  0  0  0
   14.7409    2.1942    0.0000 C   0  0  0  0  0  0  0  0  0  0  0  0
   14.7383    1.3700    0.0000 C   0  0  0  0  0  0  0  0  0  0  0  0
   15.4496    0.9574    0.0000 C   0  0  0  0  0  0  0  0  0  0  0  0
   16.1640    1.3680    0.0000 C   0  0  0  0  0  0  0  0  0  0  0  0
   16.1626    2.1954    0.0000 C   0  0  0  0  0  0  0  0  0  0  0  0
   15.4506    2.6041    0.0000 C   0  0  0  0  0  0  0  0  0  0  0  0
  3  6  2  0
 13 14  1  0
  1  2  2  0
 14 15  2  0
 15 10  1  0
  8 10  1  0
  5  4  2  0
 13 16  1  0
  6  7  1  0
 16 17  1  0
  7  8  2  0
 17 18  1  0
  8  9  1  0
 17 19  2  0
 18 20  2  0
  9  5  1  0
  4  1  1  0
 20 23  1  0
 22 21  1  0
 21 18  1  0
  5  6  1  0
 10 11  2  0
 22 23  2  0
 23 24  1  0
 11 12  1  0
 24 25  2  0
  2  3  1  0
 25 26  1  0
 12 13  2  0
 26 27  2  0
 27 22  1  0
M  END
> <chembl_id>
CHEMBL2011805

> <chembl_pref_name>
None

$$$$
CHEMBL2059294
     RDKit          2D

 22 22  0  0  0  0  0  0  0  0999 V2000
   15.5464   -8.3658    0.0000 C   0  0  0  0  0  0  0  0  0  0  0  0
   14.2113   -8.3657    0.0000 C   0  0  0  0  0  0  0  0  0  0  0  0
   13.4277   -8.6225    0.0000 O   0  0  0  0  0  0  0  0  0  0  0  0
   14.4649   -7.5831    0.0000 C   0  0  0  0  0  0  0  0  0  0  0  0
   15.2927   -7.5831    0.0000 O   0  0  0  0  0  0  0  0  0  0  0  0
   13.9812   -6.9140    0.0000 C   0  0  0  0  0  0  0  0  0  0  0  0
   14.8789   -8.8522    0.0000 C   0  0  0  0  0  0  0  0  0  0  0  0
   16.3300   -8.6225    0.0000 O   0  0  0  0  0  0  0  0  0  0  0  0
   14.8789   -9.6761    0.0000 C   0  0  0  0  0  0  0  0  0  0  0  0
   14.1640  -10.0880    0.0000 C   0  0  0  0  0  0  0  0  0  0  0  0
   13.4533   -9.6761    0.0000 C   0  0  0  0  0  0  0  0  0  0  0  0
   12.7384  -10.0880    0.0000 C   0  0  0  0  0  0  0  0  0  0  0  0
   12.0236   -9.6761    0.0000 C   0  0  0  0  0  0  0  0  0  0  0  0
   11.3129  -10.0880    0.0000 C   0  0  0  0  0  0  0  0  0  0  0  0
   10.5980   -9.6761    0.0000 C   0  0  0  0  0  0  0  0  0  0  0  0
    9.8831  -10.0880    0.0000 C   0  0  0  0  0  0  0  0  0  0  0  0
    9.1724   -9.6761    0.0000 C   0  0  0  0  0  0  0  0  0  0  0  0
    8.4576  -10.0880    0.0000 C   0  0  0  0  0  0  0  0  0  0  0  0
    7.7427   -9.6761    0.0000 C   0  0  0  0  0  0  0  0  0  0  0  0
    7.0320  -10.0880    0.0000 C   0  0  0  0  0  0  0  0  0  0  0  0
    6.3171   -9.6761    0.0000 C   0  0  0  0  0  0  0  0  0  0  0  0
    5.6023  -10.0880    0.0000 C   0  0  0  0  0  0  0  0  0  0  0  0
  2  3  1  1
  2  4  1  0
  4  5  1  0
  4  6  1  1
  2  7  1  0
  1  7  1  0
  1  8  2  0
  9 10  1  0
 10 11  1  0
 11 12  1  0
 12 13  1  0
 13 14  1  0
 14 15  1  0
 15 16  1  0
 16 17  1  0
 17 18  1  0
 18 19  1  0
 19 20  1  0
 20 21  1  0
 21 22  1  0
  7  9  2  0
  1  5  1  0
M  END
> <chembl_id>
CHEMBL2059294

> <chembl_pref_name>
MARLIOLIDE

$$$$
CHEMBL518542
     RDKit          2D

 20 22  0  0  0  0  0  0  0  0999 V2000
    5.0537    0.8782    0.0000 C   0  0  0  0  0  0  0  0  0  0  0  0
    5.7961    0.5116    0.0000 C   0  0  0  0  0  0  0  0  0  0  0  0
    5.9746   -0.2936    0.0000 C   0  0  0  0  0  0  0  0  0  0  0  0
    4.1151   -0.2738    0.0000 C   0  0  0  0  0  0  0  0  0  0  0  0
    4.3091    0.5283    0.0000 C   0  0  0  0  0  0  0  0  0  0  0  0
    3.6063    0.9608    0.0000 C   0  0  0  0  0  0  0  0  0  0  0  0
    2.9778    0.4259    0.0000 C   0  0  0  0  0  0  0  0  0  0  0  0
    3.2924   -0.3370    0.0000 C   0  0  0  0  0  0  0  0  0  0  0  0
    4.5184    1.3309    0.0000 H   0  0  0  0  0  0  0  0  0  0  0  0
    3.6965   -0.9846    0.0000 H   0  0  0  0  0  0  0  0  0  0  0  0
    2.4657   -0.3296    0.0000 O   0  0  0  0  0  0  0  0  0  0  0  0
    2.8745   -1.0472    0.0000 C   0  0  0  0  0  0  0  0  0  0  0  0
    5.0337   -1.6428    0.0000 C   0  0  0  0  0  0  0  0  0  0  0  0
    5.0616    1.7043    0.0000 C   0  0  0  0  0  0  0  0  0  0  0  0
    4.6143   -2.3531    0.0000 C   0  0  0  0  0  0  0  0  0  0  0  0
    5.4404   -2.3531    0.0000 C   0  0  0  0  0  0  0  0  0  0  0  0
    5.4517   -0.9316    0.0000 C   0  0  0  0  0  0  0  0  0  0  0  0
    4.6267   -0.9252    0.0000 C   0  0  0  0  0  0  0  0  0  0  0  0
    4.0433   -1.5086    0.0000 H   0  0  0  0  0  0  0  0  0  0  0  0
    6.1662   -1.3441    0.0000 H   0  0  0  0  0  0  0  0  0  0  0  0
  8  4  1  0
  3 17  1  0
  5  9  1  6
  4  5  1  0
  4 10  1  1
  8 11  1  1
  1  2  1  0
  8 12  1  0
 18 17  1  0
 13 18  1  0
 17 13  1  0
  5  1  1  0
  2  3  1  0
  4 18  1  0
  5  6  1  0
  1 14  2  0
  6  7  1  0
 13 15  1  0
  7  8  1  0
 13 16  1  0
 17 20  1  6
 18 19  1  6
M  END
> <chembl_id>
CHEMBL518542

> <chembl_pref_name>
SPATHULENOL

$$$$
CHEMBL490943
     RDKit          2D

 35 38  0  0  0  0  0  0  0  0999 V2000
    7.5583   -0.1833    0.0000 C   0  0  0  0  0  0  0  0  0  0  0  0
    8.3833   -0.1833    0.0000 C   0  0  0  0  0  0  0  0  0  0  0  0
    9.2083   -0.1833    0.0000 C   0  0  0  0  0  0  0  0  0  0  0  0
    8.3833    0.6417    0.0000 C   0  0  0  0  0  0  0  0  0  0  0  0
    8.3833   -1.0083    0.0000 C   0  0  0  0  0  0  0  0  0  0  0  0
    9.6190   -0.9001    0.0000 C   0  0  0  0  0  0  0  0  0  0  0  0
   10.4432   -0.9005    0.0000 C   0  0  0  0  0  0  0  0  0  0  0  0
   10.8565   -0.1855    0.0000 C   0  0  0  0  0  0  0  0  0  0  0  0
   10.4396    0.5314    0.0000 C   0  0  0  0  0  0  0  0  0  0  0  0
    9.6167    0.5282    0.0000 C   0  0  0  0  0  0  0  0  0  0  0  0
    9.1001    1.0523    0.0000 C   0  0  0  0  0  0  0  0  0  0  0  0
    9.1005    1.8765    0.0000 C   0  0  0  0  0  0  0  0  0  0  0  0
    8.3855    2.2899    0.0000 C   0  0  0  0  0  0  0  0  0  0  0  0
    7.6686    1.8729    0.0000 C   0  0  0  0  0  0  0  0  0  0  0  0
    7.6718    1.0501    0.0000 C   0  0  0  0  0  0  0  0  0  0  0  0
    7.1477    0.5335    0.0000 C   0  0  0  0  0  0  0  0  0  0  0  0
    6.3235    0.5338    0.0000 C   0  0  0  0  0  0  0  0  0  0  0  0
    5.9101   -0.1812    0.0000 C   0  0  0  0  0  0  0  0  0  0  0  0
    6.3271   -0.8980    0.0000 C   0  0  0  0  0  0  0  0  0  0  0  0
    7.1499   -0.8949    0.0000 C   0  0  0  0  0  0  0  0  0  0  0  0
    5.0851   -0.1823    0.0000 O   0  0  0  0  0  0  0  0  0  0  0  0
    8.3844    3.1149    0.0000 O   0  0  0  0  0  0  0  0  0  0  0  0
   11.6815   -0.1844    0.0000 C   0  0  0  0  0  0  0  0  0  0  0  0
   12.5042   -0.1833    0.0000 C   0  0  0  0  0  0  0  0  0  0  0  0
   11.6805    0.6406    0.0000 C   0  0  0  0  0  0  0  0  0  0  0  0
   11.6849   -1.0094    0.0000 C   0  0  0  0  0  0  0  0  0  0  0  0
   12.3965    1.0506    0.0000 C   0  0  0  0  0  0  0  0  0  0  0  0
   12.3957    1.8748    0.0000 C   0  0  0  0  0  0  0  0  0  0  0  0
   11.6802    2.2872    0.0000 C   0  0  0  0  0  0  0  0  0  0  0  0
   10.9639    1.8693    0.0000 C   0  0  0  0  0  0  0  0  0  0  0  0
   10.9681    1.0465    0.0000 C   0  0  0  0  0  0  0  0  0  0  0  0
   11.6780    3.1122    0.0000 O   0  0  0  0  0  0  0  0  0  0  0  0
   13.1099    2.2879    0.0000 Br  0  0  0  0  0  0  0  0  0  0  0  0
    9.8151    2.2887    0.0000 Br  0  0  0  0  0  0  0  0  0  0  0  0
    5.9113    1.2485    0.0000 Br  0  0  0  0  0  0  0  0  0  0  0  0
 16 17  1  0
  8  9  1  0
 17 18  2  0
  2  5  1  0
 18 19  1  0
  9 10  2  0
 19 20  2  0
 20  1  1  0
 10  3  1  0
 18 21  1  0
  2  3  1  0
 13 22  1  0
  4 11  2  0
  8 23  1  0
  3  6  2  0
 23 24  1  0
 11 12  1  0
 23 25  1  0
  1  2  1  0
 23 26  1  0
 12 13  2  0
 25 27  2  0
  6  7  1  0
 27 28  1  0
 13 14  1  0
 28 29  2  0
  2  4  1  0
 29 30  1  0
 14 15  2  0
 30 31  2  0
 31 25  1  0
 15  4  1  0
 29 32  1  0
  7  8  2  0
 28 33  1  0
  1 16  2  0
 12 34  1  0
 17 35  1  0
M  END
> <chembl_id>
CHEMBL490943

> <chembl_pref_name>
None

$$$$
CHEMBL491099
     RDKit          2D

 34 37  0  0  0  0  0  0  0  0999 V2000
   11.4736   -2.4958    0.0000 C   0  0  0  0  0  0  0  0  0  0  0  0
   11.4724   -3.3232    0.0000 C   0  0  0  0  0  0  0  0  0  0  0  0
   12.1872   -3.7360    0.0000 C   0  0  0  0  0  0  0  0  0  0  0  0
   12.9037   -3.3227    0.0000 N   0  0  0  0  0  0  0  0  0  0  0  0
   12.9008   -2.4922    0.0000 C   0  0  0  0  0  0  0  0  0  0  0  0
   12.1854   -2.0830    0.0000 N   0  0  0  0  0  0  0  0  0  0  0  0
   13.6137   -2.0770    0.0000 N   0  0  0  0  0  0  0  0  0  0  0  0
   13.6106   -1.2520    0.0000 S   0  0  0  0  0  0  0  0  0  0  0  0
   13.6042   -0.4250    0.0000 C   0  0  0  0  0  0  0  0  0  0  0  0
   14.4356   -1.2472    0.0000 O   0  0  0  0  0  0  0  0  0  0  0  0
   12.7856   -1.2588    0.0000 O   0  0  0  0  0  0  0  0  0  0  0  0
   14.3195   -0.0078    0.0000 C   0  0  0  0  0  0  0  0  0  0  0  0
   14.3134    0.8184    0.0000 C   0  0  0  0  0  0  0  0  0  0  0  0
   13.5934    1.2272    0.0000 C   0  0  0  0  0  0  0  0  0  0  0  0
   12.8781    0.8036    0.0000 C   0  0  0  0  0  0  0  0  0  0  0  0
   12.8877   -0.0212    0.0000 C   0  0  0  0  0  0  0  0  0  0  0  0
   13.5859    2.0521    0.0000 N   0  0  0  0  0  0  0  0  0  0  0  0
   12.1870   -4.5610    0.0000 C   0  0  0  0  0  0  0  0  0  0  0  0
   11.4727   -4.9706    0.0000 C   0  0  0  0  0  0  0  0  0  0  0  0
   11.4722   -5.7948    0.0000 C   0  0  0  0  0  0  0  0  0  0  0  0
   12.1871   -6.2083    0.0000 C   0  0  0  0  0  0  0  0  0  0  0  0
   12.9040   -5.7915    0.0000 C   0  0  0  0  0  0  0  0  0  0  0  0
   12.9010   -4.9687    0.0000 C   0  0  0  0  0  0  0  0  0  0  0  0
   12.1880   -7.0333    0.0000 N   0  0  0  0  0  0  0  0  0  0  0  0
   11.4739   -7.4466    0.0000 C   0  0  0  0  0  0  0  0  0  0  0  0
   12.9029   -7.4450    0.0000 C   0  0  0  0  0  0  0  0  0  0  0  0
   10.7590   -2.0835    0.0000 C   0  0  0  0  0  0  0  0  0  0  0  0
   10.7622   -1.2575    0.0000 C   0  0  0  0  0  0  0  0  0  0  0  0
   10.0485   -0.8453    0.0000 C   0  0  0  0  0  0  0  0  0  0  0  0
    9.3332   -1.2580    0.0000 C   0  0  0  0  0  0  0  0  0  0  0  0
    9.3360   -2.0873    0.0000 C   0  0  0  0  0  0  0  0  0  0  0  0
   10.0503   -2.4958    0.0000 C   0  0  0  0  0  0  0  0  0  0  0  0
    8.6180   -0.8466    0.0000 O   0  0  0  0  0  0  0  0  0  0  0  0
    8.6167   -0.0216    0.0000 C   0  0  0  0  0  0  0  0  0  0  0  0
  7  8  1  0
 14 17  1  0
  3 18  1  0
  8  9  1  0
 18 19  2  0
  4  5  1  0
 19 20  1  0
  8 10  2  0
 20 21  2  0
  2  3  1  0
 21 22  1  0
  8 11  2  0
 22 23  2  0
 23 18  1  0
  5  6  2  0
 21 24  1  0
  9 12  2  0
 24 25  1  0
  6  1  1  0
 24 26  1  0
 12 13  1  0
  1 27  1  0
  1  2  2  0
 27 28  2  0
 13 14  2  0
 28 29  1  0
  5  7  1  0
 29 30  2  0
 14 15  1  0
 30 31  1  0
  3  4  2  0
 31 32  2  0
 32 27  1  0
 15 16  2  0
 30 33  1  0
 16  9  1  0
 33 34  1  0
M  END
> <chembl_id>
CHEMBL491099

> <chembl_pref_name>
None

$$$$
CHEMBL1404086
     RDKit          2D

 21 22  0  0  0  0  0  0  0  0999 V2000
    1.7078    2.5021    0.0000 O   0  0  0  0  0  0  0  0  0  0  0  0
    1.1085    1.3780    0.0000 O   0  0  0  0  0  0  0  0  0  0  0  0
    2.8374    3.5502    0.0000 O   0  0  0  0  0  0  0  0  0  0  0  0
    2.5374    1.3780    0.0000 C   0  0  0  0  0  0  0  0  0  0  0  0
    2.4758    2.2007    0.0000 C   0  0  0  0  0  0  0  0  0  0  0  0
    1.8230    0.9655    0.0000 C   0  0  0  0  0  0  0  0  0  0  0  0
    3.0805    2.7619    0.0000 C   0  0  0  0  0  0  0  0  0  0  0  0
    1.1085   -1.0970    0.0000 C   0  0  0  0  0  0  0  0  0  0  0  0
    3.2191    0.9133    0.0000 C   0  0  0  0  0  0  0  0  0  0  0  0
    1.8230    0.1405    0.0000 C   0  0  0  0  0  0  0  0  0  0  0  0
    1.8230   -1.5095    0.0000 C   0  0  0  0  0  0  0  0  0  0  0  0
    1.1085   -0.2720    0.0000 C   0  0  0  0  0  0  0  0  0  0  0  0
    0.3940   -1.5095    0.0000 C   0  0  0  0  0  0  0  0  0  0  0  0
    3.8963    2.6389    0.0000 C   0  0  0  0  0  0  0  0  0  0  0  0
    0.3940   -2.3345    0.0000 C   0  0  0  0  0  0  0  0  0  0  0  0
    4.0074    1.1565    0.0000 C   0  0  0  0  0  0  0  0  0  0  0  0
    1.8230   -2.3345    0.0000 C   0  0  0  0  0  0  0  0  0  0  0  0
    4.3088    1.9245    0.0000 C   0  0  0  0  0  0  0  0  0  0  0  0
    1.1085   -2.7470    0.0000 C   0  0  0  0  0  0  0  0  0  0  0  0
    2.5374   -1.0970    0.0000 C   0  0  0  0  0  0  0  0  0  0  0  0
   -0.3205   -2.7470    0.0000 C   0  0  0  0  0  0  0  0  0  0  0  0
  1  5  1  0
  2  6  2  0
  3  7  2  0
  4  5  2  0
  4  6  1  0
  4  9  1  0
  5  7  1  0
  6 10  1  0
  7 14  1  0
  8 11  1  0
  8 12  1  0
  8 13  2  0
  9 16  2  0
 10 12  2  0
 11 17  2  0
 11 20  1  0
 13 15  1  0
 14 18  2  0
 15 19  2  0
 15 21  1  0
 16 18  1  0
 17 19  1  0
M  END
> <chembl_id>
CHEMBL1404086

> <chembl_pref_name>
None

$$$$
CHEMBL553204
     RDKit          2D

 48 52  0  0  0  0  0  0  0  0999 V2000
    2.0245    0.0882    0.0000 O   0  0  0  0  0  0  0  0  0  0  0  0
    2.0245    0.9132    0.0000 C   0  0  0  0  0  0  0  0  0  0  0  0
    2.7389    1.3257    0.0000 C   0  0  0  0  0  0  0  0  0  0  0  0
    3.4534    0.9132    0.0000 O   0  0  0  0  0  0  0  0  0  0  0  0
    2.7389    2.1507    0.0000 C   0  0  0  0  0  0  0  0  0  0  0  0
    3.4534    2.5632    0.0000 O   0  0  0  0  0  0  0  0  0  0  0  0
    2.0245    2.5632    0.0000 C   0  0  0  0  0  0  0  0  0  0  0  0
    2.0245    3.3882    0.0000 O   0  0  0  0  0  0  0  0  0  0  0  0
    1.3100    2.1507    0.0000 C   0  0  0  0  0  0  0  0  0  0  0  0
    1.3100    1.3257    0.0000 O   0  0  0  0  0  0  0  0  0  0  0  0
    0.5955    2.5632    0.0000 C   0  0  0  0  0  0  0  0  0  0  0  0
   -2.2624   -1.5618    0.0000 O   0  0  0  0  0  0  0  0  0  0  0  0
   -2.9768   -1.1493    0.0000 C   0  0  0  0  0  0  0  0  0  0  0  0
   -3.6913   -1.5618    0.0000 C   0  0  0  0  0  0  0  0  0  0  0  0
   -3.6913   -2.3868    0.0000 O   0  0  0  0  0  0  0  0  0  0  0  0
   -4.4058   -1.1493    0.0000 C   0  0  0  0  0  0  0  0  0  0  0  0
   -5.1203   -1.5618    0.0000 O   0  0  0  0  0  0  0  0  0  0  0  0
   -4.4058   -0.3243    0.0000 C   0  0  0  0  0  0  0  0  0  0  0  0
   -5.1203    0.0882    0.0000 O   0  0  0  0  0  0  0  0  0  0  0  0
   -3.6913    0.0882    0.0000 C   0  0  0  0  0  0  0  0  0  0  0  0
   -2.9768   -0.3243    0.0000 O   0  0  0  0  0  0  0  0  0  0  0  0
   -3.6913    0.9132    0.0000 C   0  0  0  0  0  0  0  0  0  0  0  0
   -2.9768    1.3257    0.0000 O   0  0  0  0  0  0  0  0  0  0  0  0
   -1.5479   -1.1493    0.0000 C   0  0  0  0  0  0  0  0  0  0  0  0
   -1.5479   -0.3243    0.0000 C   0  0  0  0  0  0  0  0  0  0  0  0
   -0.8334    0.0882    0.0000 C   0  0  0  0  0  0  0  0  0  0  0  0
   -0.8334   -1.5618    0.0000 C   0  0  0  0  0  0  0  0  0  0  0  0
   -0.1190   -1.1493    0.0000 C   0  0  0  0  0  0  0  0  0  0  0  0
   -0.1190   -0.3243    0.0000 C   0  0  0  0  0  0  0  0  0  0  0  0
    0.5955    0.0882    0.0000 C   0  0  0  0  0  0  0  0  0  0  0  0
    1.3100   -0.3243    0.0000 C   0  0  0  0  0  0  0  0  0  0  0  0
    1.3100   -1.1493    0.0000 C   0  0  0  0  0  0  0  0  0  0  0  0
    0.5955   -1.5618    0.0000 O   0  0  0  0  0  0  0  0  0  0  0  0
   -0.8334    0.9132    0.0000 O   0  0  0  0  0  0  0  0  0  0  0  0
    0.5955    0.9132    0.0000 O   0  0  0  0  0  0  0  0  0  0  0  0
    2.0245   -1.5618    0.0000 C   0  0  0  0  0  0  0  0  0  0  0  0
    2.7389   -1.1493    0.0000 C   0  0  0  0  0  0  0  0  0  0  0  0
    3.4534   -1.5618    0.0000 C   0  0  0  0  0  0  0  0  0  0  0  0
    3.4534   -2.3868    0.0000 C   0  0  0  0  0  0  0  0  0  0  0  0
    2.7389   -2.7993    0.0000 C   0  0  0  0  0  0  0  0  0  0  0  0
    2.0245   -2.3868    0.0000 C   0  0  0  0  0  0  0  0  0  0  0  0
    4.1679   -2.7993    0.0000 O   0  0  0  0  0  0  0  0  0  0  0  0
    4.1679   -3.6243    0.0000 C   0  0  0  0  0  0  0  0  0  0  0  0
   -0.8334   -2.3868    0.0000 C   0  0  0  0  0  0  0  0  0  0  0  0
   -0.1190   -2.7993    0.0000 C   0  0  0  0  0  0  0  0  0  0  0  0
   -0.1190   -3.6243    0.0000 C   0  0  0  0  0  0  0  0  0  0  0  0
    0.5955   -4.0368    0.0000 C   0  0  0  0  0  0  0  0  0  0  0  0
   -0.8334   -4.0368    0.0000 C   0  0  0  0  0  0  0  0  0  0  0  0
  2  1  1  6
 24 25  2  0
  2  3  1  0
 25 26  1  0
 26 29  2  0
  3  4  1  1
 28 27  2  0
 27 24  1  0
 28 29  1  0
  3  5  1  0
  5  6  1  1
  5  7  1  0
  7  8  1  6
  7  9  1  0
  9 10  1  0
 28 33  1  0
 29 30  1  0
 30 31  1  0
 31 32  2  0
 32 33  1  0
  9 11  1  1
 26 34  1  0
  2 10  1  0
 30 35  2  0
 31  1  1  0
 13 12  1  1
 32 36  1  0
 13 14  1  0
 36 37  2  0
 14 15  1  6
 37 38  1  0
 14 16  1  0
 38 39  2  0
 16 17  1  1
 39 40  1  0
 16 18  1  0
 40 41  2  0
 41 36  1  0
 18 19  1  6
 39 42  1  0
 18 20  1  0
 42 43  1  0
 20 21  1  0
 27 44  1  0
 24 12  1  0
 20 22  1  1
 44 45  1  0
 22 23  1  0
 45 46  2  0
 13 21  1  0
 46 47  1  0
 46 48  1  0
M  END
> <chembl_id>
CHEMBL553204

> <chembl_pref_name>
ICARIIN

$$$$
CHEMBL4061550
     RDKit          2D

 17 18  0  0  0  0  0  0  0  0999 V2000
   24.5556   -9.4678    0.0000 C   0  0  0  0  0  0  0  0  0  0  0  0
   24.5544  -10.2874    0.0000 C   0  0  0  0  0  0  0  0  0  0  0  0
   25.2625  -10.6963    0.0000 C   0  0  0  0  0  0  0  0  0  0  0  0
   25.9722  -10.2869    0.0000 C   0  0  0  0  0  0  0  0  0  0  0  0
   25.9693   -9.4642    0.0000 C   0  0  0  0  0  0  0  0  0  0  0  0
   25.2607   -9.0590    0.0000 C   0  0  0  0  0  0  0  0  0  0  0  0
   25.2583   -8.2418    0.0000 O   0  0  0  0  0  0  0  0  0  0  0  0
   25.9647   -7.8311    0.0000 C   0  0  0  0  0  0  0  0  0  0  0  0
   26.6716   -8.2399    0.0000 C   0  0  0  0  0  0  0  0  0  0  0  0
   27.3776   -7.8299    0.0000 C   0  0  0  0  0  0  0  0  0  0  0  0
   27.3756   -7.0118    0.0000 C   0  0  0  0  0  0  0  0  0  0  0  0
   26.6617   -6.6055    0.0000 C   0  0  0  0  0  0  0  0  0  0  0  0
   25.9586   -7.0179    0.0000 C   0  0  0  0  0  0  0  0  0  0  0  0
   23.8464  -10.6954    0.0000 C   0  0  0  0  0  0  0  0  0  0  0  0
   23.1390  -10.2862    0.0000 N   0  0  0  0  0  0  0  0  0  0  0  0
   23.8478   -9.0594    0.0000 F   0  0  0  0  0  0  0  0  0  0  0  0
   26.6755   -9.0530    0.0000 F   0  0  0  0  0  0  0  0  0  0  0  0
  1  2  2  0
  2  3  1  0
  3  4  2  0
  4  5  1  0
  5  6  2  0
  6  1  1  0
  6  7  1  0
  7  8  1  0
  8  9  2  0
  9 10  1  0
 10 11  2  0
 11 12  1  0
 12 13  2  0
 13  8  1  0
  2 14  1  0
 14 15  1  0
  1 16  1  0
  5 17  1  0
M  END
> <chembl_id>
CHEMBL4061550

> <chembl_pref_name>
None

$$$$
CHEMBL490624
     RDKit          2D

 25 28  0  0  0  0  0  0  0  0999 V2000
    3.8079  -20.7410    0.0000 C   0  0  0  0  0  0  0  0  0  0  0  0
    3.8067  -21.5677    0.0000 C   0  0  0  0  0  0  0  0  0  0  0  0
    4.5209  -21.9802    0.0000 C   0  0  0  0  0  0  0  0  0  0  0  0
    4.5191  -20.3286    0.0000 C   0  0  0  0  0  0  0  0  0  0  0  0
    5.2339  -20.7374    0.0000 C   0  0  0  0  0  0  0  0  0  0  0  0
    5.2327  -21.5697    0.0000 C   0  0  0  0  0  0  0  0  0  0  0  0
    5.9490  -21.9847    0.0000 N   0  0  0  0  0  0  0  0  0  0  0  0
    5.9514  -20.3200    0.0000 C   0  0  0  0  0  0  0  0  0  0  0  0
    6.6723  -20.7394    0.0000 C   0  0  0  0  0  0  0  0  0  0  0  0
    6.6710  -21.5677    0.0000 C   0  0  0  0  0  0  0  0  0  0  0  0
    7.3865  -21.9811    0.0000 C   0  0  0  0  0  0  0  0  0  0  0  0
    8.1038  -21.5674    0.0000 C   0  0  0  0  0  0  0  0  0  0  0  0
    8.1011  -20.7360    0.0000 C   0  0  0  0  0  0  0  0  0  0  0  0
    7.3850  -20.3264    0.0000 C   0  0  0  0  0  0  0  0  0  0  0  0
    5.9514  -19.4957    0.0000 O   0  0  0  0  0  0  0  0  0  0  0  0
    7.3862  -22.8054    0.0000 C   0  0  0  0  0  0  0  0  0  0  0  0
    6.6721  -23.2173    0.0000 O   0  0  0  0  0  0  0  0  0  0  0  0
    8.0999  -23.2179    0.0000 N   0  0  0  0  0  0  0  0  0  0  0  0
    8.0996  -24.0422    0.0000 C   0  0  0  0  0  0  0  0  0  0  0  0
    7.3855  -24.4484    0.0000 C   0  0  0  0  0  0  0  0  0  0  0  0
    7.3848  -25.2720    0.0000 C   0  0  0  0  0  0  0  0  0  0  0  0
    8.0991  -25.6852    0.0000 C   0  0  0  0  0  0  0  0  0  0  0  0
    8.8155  -25.2690    0.0000 C   0  0  0  0  0  0  0  0  0  0  0  0
    8.8127  -24.4467    0.0000 N   0  0  0  0  0  0  0  0  0  0  0  0
    9.5307  -25.6788    0.0000 C   0  0  0  0  0  0  0  0  0  0  0  0
 11 12  2  0
  2  3  1  0
 12 13  1  0
  3  6  2  0
 13 14  2  0
 14  9  1  0
  1  2  2  0
  8 15  2  0
  5  8  1  0
 11 16  1  0
  6  7  1  0
 16 17  2  0
  7 10  1  0
 16 18  1  0
  9  8  1  0
 18 19  1  0
  5  4  2  0
 19 20  2  0
  4  1  1  0
 20 21  1  0
  9 10  2  0
 21 22  2  0
  5  6  1  0
 22 23  1  0
 10 11  1  0
 23 24  2  0
 24 19  1  0
 23 25  1  0
M  END
> <chembl_id>
CHEMBL490624

> <chembl_pref_name>
None

$$$$
CHEMBL599013
     RDKit          2D

 29 32  0  0  0  0  0  0  0  0999 V2000
   10.2056  -15.6371    0.0000 C   0  0  0  0  0  0  0  0  0  0  0  0
   10.9200  -15.2246    0.0000 C   0  0  0  0  0  0  0  0  0  0  0  0
   10.9200  -14.3996    0.0000 C   0  0  0  0  0  0  0  0  0  0  0  0
   10.2056  -13.9871    0.0000 C   0  0  0  0  0  0  0  0  0  0  0  0
    9.4911  -14.3996    0.0000 C   0  0  0  0  0  0  0  0  0  0  0  0
    9.4911  -15.2246    0.0000 C   0  0  0  0  0  0  0  0  0  0  0  0
   11.6345  -13.9871    0.0000 C   0  0  0  0  0  0  0  0  0  0  0  0
   12.3490  -14.3996    0.0000 O   0  0  0  0  0  0  0  0  0  0  0  0
   11.6345  -13.1621    0.0000 O   0  0  0  0  0  0  0  0  0  0  0  0
   10.2056  -13.1621    0.0000 C   0  0  0  0  0  0  0  0  0  0  0  0
   10.9200  -12.7496    0.0000 N   0  0  0  0  0  0  0  0  0  0  0  0
   10.9200  -11.9246    0.0000 N   0  0  0  0  0  0  0  0  0  0  0  0
   10.2056  -11.5121    0.0000 C   0  0  0  0  0  0  0  0  0  0  0  0
   10.2056  -10.6871    0.0000 C   0  0  0  0  0  0  0  0  0  0  0  0
    9.4911  -11.9246    0.0000 O   0  0  0  0  0  0  0  0  0  0  0  0
    9.4911  -10.2746    0.0000 C   0  0  0  0  0  0  0  0  0  0  0  0
    9.4911   -9.4496    0.0000 C   0  0  0  0  0  0  0  0  0  0  0  0
   10.2056   -9.0371    0.0000 N   0  0  0  0  0  0  0  0  0  0  0  0
    8.7766   -9.0371    0.0000 C   0  0  0  0  0  0  0  0  0  0  0  0
    8.0230   -9.3726    0.0000 C   0  0  0  0  0  0  0  0  0  0  0  0
    7.4709   -8.7595    0.0000 C   0  0  0  0  0  0  0  0  0  0  0  0
    7.8834   -8.0451    0.0000 C   0  0  0  0  0  0  0  0  0  0  0  0
    8.6904   -8.2166    0.0000 O   0  0  0  0  0  0  0  0  0  0  0  0
   10.9200  -10.2746    0.0000 C   0  0  0  0  0  0  0  0  0  0  0  0
   10.9200   -9.4496    0.0000 C   0  0  0  0  0  0  0  0  0  0  0  0
   11.6345   -9.0371    0.0000 C   0  0  0  0  0  0  0  0  0  0  0  0
   12.3490   -9.4496    0.0000 C   0  0  0  0  0  0  0  0  0  0  0  0
   12.3490  -10.2746    0.0000 C   0  0  0  0  0  0  0  0  0  0  0  0
   11.6345  -10.6871    0.0000 C   0  0  0  0  0  0  0  0  0  0  0  0
  3  7  1  0
 13 15  2  0
 14 16  2  0
  3  4  2  0
  7  8  1  0
 14 24  1  0
 16 17  1  0
 17 18  2  0
 18 25  1  0
  7  9  2  0
 17 19  1  0
 19 20  2  0
  4  5  1  0
  4 10  1  0
  2  3  1  0
 10 11  2  0
 20 21  1  0
 21 22  2  0
 22 23  1  0
 23 19  1  0
  5  6  2  0
 11 12  1  0
 24 25  2  0
  6  1  1  0
 25 26  1  0
 12 13  1  0
 26 27  2  0
  1  2  2  0
 27 28  1  0
 13 14  1  0
 28 29  2  0
 29 24  1  0
M  END
> <chembl_id>
CHEMBL599013

> <chembl_pref_name>
None

$$$$
CHEMBL509779
     RDKit          2D

 25 28  0  0  0  0  0  0  0  0999 V2000
   -3.8993    1.5284    0.0000 C   0  0  0  0  0  0  0  0  0  0  0  0
   -3.9005    0.7014    0.0000 C   0  0  0  0  0  0  0  0  0  0  0  0
   -3.1861    0.2888    0.0000 C   0  0  0  0  0  0  0  0  0  0  0  0
   -3.1879    1.9410    0.0000 C   0  0  0  0  0  0  0  0  0  0  0  0
   -2.4729    1.5320    0.0000 C   0  0  0  0  0  0  0  0  0  0  0  0
   -2.4741    0.6994    0.0000 C   0  0  0  0  0  0  0  0  0  0  0  0
   -1.7576    0.2844    0.0000 N   0  0  0  0  0  0  0  0  0  0  0  0
   -1.7552    1.9496    0.0000 C   0  0  0  0  0  0  0  0  0  0  0  0
   -1.0341    1.5300    0.0000 C   0  0  0  0  0  0  0  0  0  0  0  0
   -1.0354    0.7014    0.0000 C   0  0  0  0  0  0  0  0  0  0  0  0
   -0.3196    0.2879    0.0000 C   0  0  0  0  0  0  0  0  0  0  0  0
    0.3978    0.7017    0.0000 C   0  0  0  0  0  0  0  0  0  0  0  0
    0.3951    1.5334    0.0000 C   0  0  0  0  0  0  0  0  0  0  0  0
   -0.3212    1.9432    0.0000 C   0  0  0  0  0  0  0  0  0  0  0  0
   -1.7552    2.7741    0.0000 O   0  0  0  0  0  0  0  0  0  0  0  0
   -0.3200   -0.5366    0.0000 C   0  0  0  0  0  0  0  0  0  0  0  0
   -1.0343   -0.9486    0.0000 O   0  0  0  0  0  0  0  0  0  0  0  0
    0.3939   -0.9492    0.0000 N   0  0  0  0  0  0  0  0  0  0  0  0
    0.3936   -1.7738    0.0000 C   0  0  0  0  0  0  0  0  0  0  0  0
   -0.3207   -2.1802    0.0000 C   0  0  0  0  0  0  0  0  0  0  0  0
   -0.3214   -3.0039    0.0000 C   0  0  0  0  0  0  0  0  0  0  0  0
    0.3931   -3.4173    0.0000 C   0  0  0  0  0  0  0  0  0  0  0  0
    1.1097   -3.0009    0.0000 C   0  0  0  0  0  0  0  0  0  0  0  0
    1.1069   -2.1785    0.0000 C   0  0  0  0  0  0  0  0  0  0  0  0
    0.3939   -4.2419    0.0000 C   0  0  0  0  0  0  0  0  0  0  0  0
 11 12  2  0
  2  3  1  0
 12 13  1  0
  3  6  2  0
 13 14  2  0
 14  9  1  0
  1  2  2  0
  8 15  2  0
  5  8  1  0
 11 16  1  0
  6  7  1  0
 16 17  2  0
  7 10  1  0
 16 18  1  0
  9  8  1  0
 18 19  1  0
  5  4  2  0
 19 20  2  0
  4  1  1  0
 20 21  1  0
  9 10  2  0
 21 22  2  0
  5  6  1  0
 22 23  1  0
 10 11  1  0
 23 24  2  0
 24 19  1  0
 22 25  1  0
M  END
> <chembl_id>
CHEMBL509779

> <chembl_pref_name>
None

$$$$
CHEMBL2059296
     RDKit          2D

 32 35  0  0  0  0  0  0  0  0999 V2000
   11.2253   -7.2888    0.0000 C   0  0  0  0  0  0  0  0  0  0  0  0
   11.9368   -6.8736    0.0000 C   0  0  0  0  0  0  0  0  0  0  0  0
   11.2214   -6.4650    0.0000 C   0  0  0  0  0  0  0  0  0  0  0  0
    7.6909   -6.8940    0.0000 C   0  0  0  0  0  0  0  0  0  0  0  0
    8.4027   -6.4737    0.0000 C   0  0  0  0  0  0  0  0  0  0  0  0
    6.9748   -6.4843    0.0000 C   0  0  0  0  0  0  0  0  0  0  0  0
    7.6909   -7.7137    0.0000 C   0  0  0  0  0  0  0  0  0  0  0  0
    6.2629   -6.9004    0.0000 C   0  0  0  0  0  0  0  0  0  0  0  0
    6.9811   -8.1340    0.0000 O   0  0  0  0  0  0  0  0  0  0  0  0
    8.4090   -8.1256    0.0000 C   0  0  0  0  0  0  0  0  0  0  0  0
    6.2629   -7.7242    0.0000 C   0  0  0  0  0  0  0  0  0  0  0  0
    6.9748   -5.6457    0.0000 O   0  0  0  0  0  0  0  0  0  0  0  0
    8.4027   -5.6457    0.0000 O   0  0  0  0  0  0  0  0  0  0  0  0
    5.5533   -8.1403    0.0000 C   0  0  0  0  0  0  0  0  0  0  0  0
    9.1161   -5.2338    0.0000 C   0  0  0  0  0  0  0  0  0  0  0  0
    9.1211   -6.8835    0.0000 C   0  0  0  0  0  0  0  0  0  0  0  0
    9.1250   -7.7137    0.0000 C   0  0  0  0  0  0  0  0  0  0  0  0
    9.9157   -7.9665    0.0000 O   0  0  0  0  0  0  0  0  0  0  0  0
   10.4006   -7.2926    0.0000 C   0  0  0  0  0  0  0  0  0  0  0  0
    9.9095   -6.6233    0.0000 C   0  0  0  0  0  0  0  0  0  0  0  0
   11.6397   -8.0003    0.0000 O   0  0  0  0  0  0  0  0  0  0  0  0
   12.4647   -7.9972    0.0000 C   0  0  0  0  0  0  0  0  0  0  0  0
   12.8759   -8.7118    0.0000 C   0  0  0  0  0  0  0  0  0  0  0  0
   13.6973   -8.7107    0.0000 C   0  0  0  0  0  0  0  0  0  0  0  0
   14.1109   -7.9964    0.0000 C   0  0  0  0  0  0  0  0  0  0  0  0
   13.6969   -7.2817    0.0000 C   0  0  0  0  0  0  0  0  0  0  0  0
   12.8693   -7.2812    0.0000 O   0  0  0  0  0  0  0  0  0  0  0  0
   14.1098   -9.4251    0.0000 O   0  0  0  0  0  0  0  0  0  0  0  0
   14.1091   -6.5671    0.0000 C   0  0  0  0  0  0  0  0  0  0  0  0
   14.9341   -6.5668    0.0000 O   0  0  0  0  0  0  0  0  0  0  0  0
   14.9359   -7.9964    0.0000 O   0  0  0  0  0  0  0  0  0  0  0  0
   12.4633   -9.4263    0.0000 O   0  0  0  0  0  0  0  0  0  0  0  0
 13 15  1  0
 16 17  1  0
  2  1  1  0
 16  5  2  0
  5  4  1  0
  6  4  1  0
 17 18  1  0
 18 19  1  0
 19 20  1  0
 20 16  1  0
 19  1  1  0
 17 10  2  0
  1 21  1  0
 22 21  1  1
 22 23  1  0
  7  4  2  0
  8  6  1  0
  9  7  1  0
 10  7  1  0
 11  9  1  0
 22 27  1  0
 23 24  1  0
 24 25  1  0
 25 26  1  0
 26 27  1  0
 12  6  2  0
 24 28  1  1
 13  5  1  0
 26 29  1  1
 14 11  1  0
 29 30  1  0
 11  8  2  0
 25 31  1  6
  1  3  1  0
 23 32  1  6
M  END
> <chembl_id>
CHEMBL2059296

> <chembl_pref_name>
None

$$$$
CHEMBL492769
     RDKit          2D

 23 24  0  0  0  0  0  0  0  0999 V2000
    6.7809    0.7690    0.0000 C   0  0  0  0  0  0  0  0  0  0  0  0
    6.0664    1.1815    0.0000 C   0  0  0  0  0  0  0  0  0  0  0  0
    5.3520    0.7690    0.0000 C   0  0  0  0  0  0  0  0  0  0  0  0
    5.3520   -0.0560    0.0000 C   0  0  0  0  0  0  0  0  0  0  0  0
    6.0664   -0.4685    0.0000 C   0  0  0  0  0  0  0  0  0  0  0  0
    6.7809   -0.0560    0.0000 C   0  0  0  0  0  0  0  0  0  0  0  0
    6.0664   -1.2935    0.0000 C   0  0  0  0  0  0  0  0  0  0  0  0
    6.7809   -1.7060    0.0000 C   0  0  0  0  0  0  0  0  0  0  0  0
    5.3520   -1.7060    0.0000 O   0  0  0  0  0  0  0  0  0  0  0  0
    6.7809   -2.5310    0.0000 C   0  0  0  0  0  0  0  0  0  0  0  0
    7.4954   -2.9435    0.0000 C   0  0  0  0  0  0  0  0  0  0  0  0
    6.0664   -2.9435    0.0000 O   0  0  0  0  0  0  0  0  0  0  0  0
    7.4954   -3.7685    0.0000 O   0  0  0  0  0  0  0  0  0  0  0  0
    8.2098   -2.5310    0.0000 O   0  0  0  0  0  0  0  0  0  0  0  0
    6.0664    2.0065    0.0000 O   0  0  0  0  0  0  0  0  0  0  0  0
    5.3520    2.4190    0.0000 C   0  0  0  0  0  0  0  0  0  0  0  0
    5.3520    3.2440    0.0000 C   0  0  0  0  0  0  0  0  0  0  0  0
    4.6375    3.6565    0.0000 C   0  0  0  0  0  0  0  0  0  0  0  0
    4.6375    4.4815    0.0000 C   0  0  0  0  0  0  0  0  0  0  0  0
    5.3520    4.8940    0.0000 C   0  0  0  0  0  0  0  0  0  0  0  0
    6.0664    4.4815    0.0000 C   0  0  0  0  0  0  0  0  0  0  0  0
    6.0664    3.6565    0.0000 C   0  0  0  0  0  0  0  0  0  0  0  0
    5.3520    5.7190    0.0000 Cl  0  0  0  0  0  0  0  0  0  0  0  0
  5  6  2  0
 10 12  1  0
  6  1  1  0
 11 13  2  0
  1  2  2  0
 11 14  1  0
  5  7  1  0
  2 15  1  0
  3  4  2  0
 15 16  1  0
  7  8  1  0
 16 17  1  0
 17 18  2  0
  7  9  2  0
 18 19  1  0
  4  5  1  0
 19 20  2  0
  8 10  2  0
 20 21  1  0
  2  3  1  0
 21 22  2  0
 22 17  1  0
 10 11  1  0
 20 23  1  0
M  END
> <chembl_id>
CHEMBL492769

> <chembl_pref_name>
None

$$$$
CHEMBL3910781
     RDKit          2D

 24 27  0  0  0  0  0  0  0  0999 V2000
    9.1532  -10.2256    0.0000 C   0  0  0  0  0  0  0  0  0  0  0  0
    9.1508  -11.0428    0.0000 C   0  0  0  0  0  0  0  0  0  0  0  0
    9.8587  -11.4534    0.0000 C   0  0  0  0  0  0  0  0  0  0  0  0
   10.5649  -11.0468    0.0000 C   0  0  0  0  0  0  0  0  0  0  0  0
   10.5672  -10.2297    0.0000 C   0  0  0  0  0  0  0  0  0  0  0  0
    9.8593   -9.8190    0.0000 C   0  0  0  0  0  0  0  0  0  0  0  0
    8.4453   -9.8149    0.0000 O   0  0  0  0  0  0  0  0  0  0  0  0
    8.4405  -11.4493    0.0000 C   0  0  0  0  0  0  0  0  0  0  0  0
    7.7368  -11.0387    0.0000 C   0  0  0  0  0  0  0  0  0  0  0  0
    8.4423  -12.2665    0.0000 N   0  0  0  0  0  0  0  0  0  0  0  0
    7.7320  -12.6730    0.0000 N   0  0  0  0  0  0  0  0  0  0  0  0
    8.4352  -14.7180    0.0000 C   0  0  0  0  0  0  0  0  0  0  0  0
    7.7291  -15.1246    0.0000 N   0  0  0  0  0  0  0  0  0  0  0  0
    7.0212  -14.7140    0.0000 C   0  0  0  0  0  0  0  0  0  0  0  0
    7.0235  -13.8968    0.0000 C   0  0  0  0  0  0  0  0  0  0  0  0
    7.7297  -13.4902    0.0000 C   0  0  0  0  0  0  0  0  0  0  0  0
    8.4376  -13.9009    0.0000 N   0  0  0  0  0  0  0  0  0  0  0  0
    6.2470  -13.6440    0.0000 C   0  0  0  0  0  0  0  0  0  0  0  0
    5.7650  -14.3058    0.0000 C   0  0  0  0  0  0  0  0  0  0  0  0
    6.2432  -14.9664    0.0000 S   0  0  0  0  0  0  0  0  0  0  0  0
    4.9507  -14.2153    0.0000 C   0  0  0  0  0  0  0  0  0  0  0  0
    4.6185  -13.4712    0.0000 C   0  0  0  0  0  0  0  0  0  0  0  0
    5.1005  -12.8093    0.0000 C   0  0  0  0  0  0  0  0  0  0  0  0
    5.9148  -12.8957    0.0000 C   0  0  0  0  0  0  0  0  0  0  0  0
  1  2  1  0
  2  3  2  0
  3  4  1  0
  4  5  2  0
  5  6  1  0
  1  6  2  0
  1  7  1  0
  8  9  1  0
 10 11  1  0
 12 13  1  0
 13 14  2  0
 14 15  1  0
 15 16  2  0
 16 17  1  0
 12 17  2  0
 18 19  2  0
 19 20  1  0
 21 22  1  0
 22 23  1  0
 23 24  1  0
 18 24  1  0
 19 21  1  0
 14 20  1  0
 15 18  1  0
 11 16  1  0
  8 10  2  0
  2  8  1  0
M  END
> <chembl_id>
CHEMBL3910781

> <chembl_pref_name>
None

$$$$
CHEMBL2059293
     RDKit          2D

 23 25  0  0  0  0  0  0  0  0999 V2000
    3.2297    0.4436    0.0000 C   0  0  0  0  0  0  0  0  0  0  0  0
    3.2297   -0.3814    0.0000 C   0  0  0  0  0  0  0  0  0  0  0  0
    3.9424   -0.7878    0.0000 C   0  0  0  0  0  0  0  0  0  0  0  0
    3.9424    0.8624    0.0000 C   0  0  0  0  0  0  0  0  0  0  0  0
    4.6551    0.4436    0.0000 C   0  0  0  0  0  0  0  0  0  0  0  0
    4.6516   -0.3814    0.0000 C   0  0  0  0  0  0  0  0  0  0  0  0
    5.3610   -0.7927    0.0000 C   0  0  0  0  0  0  0  0  0  0  0  0
    6.0784   -0.3875    0.0000 C   0  0  0  0  0  0  0  0  0  0  0  0
    5.3679    0.8575    0.0000 C   0  0  0  0  0  0  0  0  0  0  0  0
    6.0819    0.4327    0.0000 C   0  0  0  0  0  0  0  0  0  0  0  0
    6.8012    0.8391    0.0000 C   0  0  0  0  0  0  0  0  0  0  0  0
    6.8128    1.6676    0.0000 C   0  0  0  0  0  0  0  0  0  0  0  0
    6.0989    2.0882    0.0000 C   0  0  0  0  0  0  0  0  0  0  0  0
    5.3733    1.6844    0.0000 C   0  0  0  0  0  0  0  0  0  0  0  0
    6.7912    0.0249    0.0000 H   0  0  0  0  0  0  0  0  0  0  0  0
    5.3609    0.0331    0.0000 C   0  0  0  0  0  0  0  0  0  0  0  0
    7.5289    2.0690    0.0000 C   0  0  0  0  0  0  0  0  0  0  0  0
    8.2388    1.6496    0.0000 C   0  0  0  0  0  0  0  0  0  0  0  0
    6.8079    2.4959    0.0000 C   0  0  0  0  0  0  0  0  0  0  0  0
    4.6436   -1.2023    0.0000 H   0  0  0  0  0  0  0  0  0  0  0  0
    3.3501   -1.3724    0.0000 C   0  0  0  0  0  0  0  0  0  0  0  0
    2.5544   -1.1546    0.0000 O   0  0  0  0  0  0  0  0  0  0  0  0
    4.3492   -1.5008    0.0000 C   0  0  0  0  0  0  0  0  0  0  0  0
  1  2  1  0
  1  4  1  0
  9 14  1  0
 10 11  1  0
 11 12  1  0
 12 13  1  0
 13 14  1  0
  2  3  1  0
 10 15  1  6
  5  9  1  0
  9 16  1  1
  6  7  1  0
 12 17  1  1
  7  8  1  0
 17 18  2  0
  8 10  1  0
 12 19  1  0
  9 10  1  0
  6 20  1  6
  3  6  1  0
  3 21  1  1
  5  4  2  0
 21 22  1  0
  5  6  1  0
  3 23  1  0
M  END
> <chembl_id>
CHEMBL2059293

> <chembl_pref_name>
None

$$$$
CHEMBL452151
     RDKit          2D

 26 28  0  0  0  0  0  0  0  0999 V2000
   16.9417  -25.3500    0.0000 C   0  0  0  0  0  0  0  0  0  0  0  0
   17.7667  -25.3500    0.0000 C   0  0  0  0  0  0  0  0  0  0  0  0
   18.5917  -25.3500    0.0000 C   0  0  0  0  0  0  0  0  0  0  0  0
   17.7667  -24.5250    0.0000 C   0  0  0  0  0  0  0  0  0  0  0  0
   17.7667  -26.1750    0.0000 C   0  0  0  0  0  0  0  0  0  0  0  0
   19.0023  -26.0668    0.0000 C   0  0  0  0  0  0  0  0  0  0  0  0
   19.8265  -26.0671    0.0000 C   0  0  0  0  0  0  0  0  0  0  0  0
   20.2399  -25.3521    0.0000 C   0  0  0  0  0  0  0  0  0  0  0  0
   19.8229  -24.6353    0.0000 C   0  0  0  0  0  0  0  0  0  0  0  0
   19.0001  -24.6385    0.0000 C   0  0  0  0  0  0  0  0  0  0  0  0
   16.5310  -24.6332    0.0000 C   0  0  0  0  0  0  0  0  0  0  0  0
   15.7068  -24.6329    0.0000 C   0  0  0  0  0  0  0  0  0  0  0  0
   15.2935  -25.3479    0.0000 C   0  0  0  0  0  0  0  0  0  0  0  0
   15.7104  -26.0647    0.0000 C   0  0  0  0  0  0  0  0  0  0  0  0
   16.5333  -26.0615    0.0000 C   0  0  0  0  0  0  0  0  0  0  0  0
   14.4685  -25.3490    0.0000 O   0  0  0  0  0  0  0  0  0  0  0  0
   21.0649  -25.3510    0.0000 C   0  0  0  0  0  0  0  0  0  0  0  0
   21.8875  -25.3500    0.0000 C   0  0  0  0  0  0  0  0  0  0  0  0
   21.0638  -24.5260    0.0000 C   0  0  0  0  0  0  0  0  0  0  0  0
   21.0683  -26.1760    0.0000 C   0  0  0  0  0  0  0  0  0  0  0  0
   21.7798  -24.1161    0.0000 C   0  0  0  0  0  0  0  0  0  0  0  0
   21.7791  -23.2919    0.0000 C   0  0  0  0  0  0  0  0  0  0  0  0
   21.0635  -22.8795    0.0000 C   0  0  0  0  0  0  0  0  0  0  0  0
   20.3472  -23.2973    0.0000 C   0  0  0  0  0  0  0  0  0  0  0  0
   20.3515  -24.1202    0.0000 C   0  0  0  0  0  0  0  0  0  0  0  0
   21.0614  -22.0545    0.0000 O   0  0  0  0  0  0  0  0  0  0  0  0
 12 13  2  0
  6  7  1  0
 13 14  1  0
  2  4  1  0
 14 15  2  0
 15  1  1  0
  7  8  2  0
 13 16  1  0
  8 17  1  0
  8  9  1  0
 17 18  1  0
  2  5  1  0
 17 19  1  0
  9 10  2  0
 17 20  1  0
 10  3  1  0
 19 21  2  0
  2  3  1  0
 21 22  1  0
  1 11  2  0
 22 23  2  0
  3  6  2  0
 23 24  1  0
 11 12  1  0
 24 25  2  0
 25 19  1  0
  1  2  1  0
 23 26  1  0
M  END
> <chembl_id>
CHEMBL452151

> <chembl_pref_name>
None

$$$$
CHEMBL493430
     RDKit          2D

 40 44  0  0  0  0  0  0  0  0999 V2000
   -0.8958  -20.2833    0.0000 C   0  0  0  0  0  0  0  0  0  0  0  0
   -0.0708  -20.2833    0.0000 C   0  0  0  0  0  0  0  0  0  0  0  0
    0.7542  -20.2833    0.0000 C   0  0  0  0  0  0  0  0  0  0  0  0
   -0.0708  -19.4583    0.0000 C   0  0  0  0  0  0  0  0  0  0  0  0
   -0.0708  -21.1083    0.0000 C   0  0  0  0  0  0  0  0  0  0  0  0
    1.1648  -21.0001    0.0000 C   0  0  0  0  0  0  0  0  0  0  0  0
    1.9890  -21.0005    0.0000 C   0  0  0  0  0  0  0  0  0  0  0  0
    2.4024  -20.2855    0.0000 C   0  0  0  0  0  0  0  0  0  0  0  0
    1.9854  -19.5686    0.0000 C   0  0  0  0  0  0  0  0  0  0  0  0
    1.1626  -19.5718    0.0000 C   0  0  0  0  0  0  0  0  0  0  0  0
    0.6460  -19.0477    0.0000 C   0  0  0  0  0  0  0  0  0  0  0  0
    0.6463  -18.2235    0.0000 C   0  0  0  0  0  0  0  0  0  0  0  0
   -0.0687  -17.8101    0.0000 C   0  0  0  0  0  0  0  0  0  0  0  0
   -0.7855  -18.2271    0.0000 C   0  0  0  0  0  0  0  0  0  0  0  0
   -0.7824  -19.0499    0.0000 C   0  0  0  0  0  0  0  0  0  0  0  0
   -1.3065  -19.5665    0.0000 C   0  0  0  0  0  0  0  0  0  0  0  0
   -2.1307  -19.5662    0.0000 C   0  0  0  0  0  0  0  0  0  0  0  0
   -2.5440  -20.2812    0.0000 C   0  0  0  0  0  0  0  0  0  0  0  0
   -2.1271  -20.9980    0.0000 C   0  0  0  0  0  0  0  0  0  0  0  0
   -1.3042  -20.9949    0.0000 C   0  0  0  0  0  0  0  0  0  0  0  0
   -3.3690  -20.2823    0.0000 O   0  0  0  0  0  0  0  0  0  0  0  0
    3.2274  -20.2844    0.0000 O   0  0  0  0  0  0  0  0  0  0  0  0
    3.6389  -19.5694    0.0000 C   0  0  0  0  0  0  0  0  0  0  0  0
    4.4623  -19.5724    0.0000 C   0  0  0  0  0  0  0  0  0  0  0  0
    4.8738  -18.8583    0.0000 C   0  0  0  0  0  0  0  0  0  0  0  0
    4.4603  -18.1434    0.0000 C   0  0  0  0  0  0  0  0  0  0  0  0
    3.6310  -18.1471    0.0000 C   0  0  0  0  0  0  0  0  0  0  0  0
    3.2233  -18.8619    0.0000 C   0  0  0  0  0  0  0  0  0  0  0  0
   -3.7825  -19.5684    0.0000 C   0  0  0  0  0  0  0  0  0  0  0  0
   -3.3681  -18.8557    0.0000 C   0  0  0  0  0  0  0  0  0  0  0  0
   -3.7808  -18.1423    0.0000 C   0  0  0  0  0  0  0  0  0  0  0  0
   -4.6067  -18.1429    0.0000 C   0  0  0  0  0  0  0  0  0  0  0  0
   -5.0181  -18.8630    0.0000 C   0  0  0  0  0  0  0  0  0  0  0  0
   -4.6030  -19.5735    0.0000 C   0  0  0  0  0  0  0  0  0  0  0  0
    4.8735  -17.4262    0.0000 N   0  0  0  0  0  0  0  0  0  0  0  0
    4.4591  -16.7128    0.0000 O   0  0  0  0  0  0  0  0  0  0  0  0
    5.6985  -17.4240    0.0000 O   0  0  0  0  0  0  0  0  0  0  0  0
   -5.0208  -17.4291    0.0000 N   0  0  0  0  0  0  0  0  0  0  0  0
   -5.8458  -17.4313    0.0000 O   0  0  0  0  0  0  0  0  0  0  0  0
   -4.6102  -16.7136    0.0000 O   0  0  0  0  0  0  0  0  0  0  0  0
  9 10  2  0
 19 20  2  0
 20  1  1  0
 10  3  1  0
 18 21  1  0
  2  3  1  0
  8 22  1  0
  4 11  2  0
 22 23  1  0
  3  6  2  0
 23 24  2  0
 11 12  1  0
 24 25  1  0
  1  2  1  0
 25 26  2  0
 12 13  2  0
 26 27  1  0
  6  7  1  0
 27 28  2  0
 28 23  1  0
 13 14  1  0
 21 29  1  0
  2  4  1  0
 29 30  2  0
 14 15  2  0
 30 31  1  0
 15  4  1  0
 31 32  2  0
  7  8  2  0
 32 33  1  0
  1 16  2  0
 33 34  2  0
 34 29  1  0
 16 17  1  0
  8  9  1  0
 35 36  2  0
 35 37  1  0
 26 35  1  0
 17 18  2  0
  2  5  1  0
 18 19  1  0
 38 39  2  0
 38 40  1  0
 32 38  1  0
M  CHG  4  35   1  37  -1  38   1  40  -1
M  END
> <chembl_id>
CHEMBL493430

> <chembl_pref_name>
None

$$$$
CHEMBL1581396
     RDKit          2D

 23 24  0  0  0  0  0  0  0  0999 V2000
   -2.0193    2.2925    0.0000 Br  0  0  0  0  0  0  0  0  0  0  0  0
   -2.2781   -1.1602    0.0000 O   0  0  0  0  0  0  0  0  0  0  0  0
   -0.2904    0.1203    0.0000 O   0  0  0  0  0  0  0  0  0  0  0  0
    1.1385   -4.0047    0.0000 O   0  0  0  0  0  0  0  0  0  0  0  0
   -3.7505   -0.7060    0.0000 N   0  0  0  0  0  0  0  0  0  0  0  0
   -1.7194    0.1203    0.0000 C   0  0  0  0  0  0  0  0  0  0  0  0
   -2.4010   -0.3444    0.0000 C   0  0  0  0  0  0  0  0  0  0  0  0
   -3.1894   -0.1012    0.0000 C   0  0  0  0  0  0  0  0  0  0  0  0
   -1.0049   -0.2922    0.0000 C   0  0  0  0  0  0  0  0  0  0  0  0
   -1.6577    0.9430    0.0000 C   0  0  0  0  0  0  0  0  0  0  0  0
   -2.2625    1.5042    0.0000 C   0  0  0  0  0  0  0  0  0  0  0  0
   -3.4908    0.6667    0.0000 C   0  0  0  0  0  0  0  0  0  0  0  0
   -1.0049   -1.1172    0.0000 C   0  0  0  0  0  0  0  0  0  0  0  0
   -3.0783    1.3812    0.0000 C   0  0  0  0  0  0  0  0  0  0  0  0
   -0.2904   -2.3547    0.0000 C   0  0  0  0  0  0  0  0  0  0  0  0
   -0.2904   -1.5297    0.0000 C   0  0  0  0  0  0  0  0  0  0  0  0
    0.4240   -2.7672    0.0000 C   0  0  0  0  0  0  0  0  0  0  0  0
    0.4240   -3.5922    0.0000 C   0  0  0  0  0  0  0  0  0  0  0  0
   -1.0049   -2.7672    0.0000 C   0  0  0  0  0  0  0  0  0  0  0  0
   -0.2904   -4.0047    0.0000 C   0  0  0  0  0  0  0  0  0  0  0  0
   -1.0049   -3.5922    0.0000 C   0  0  0  0  0  0  0  0  0  0  0  0
   -4.5548   -0.5224    0.0000 C   0  0  0  0  0  0  0  0  0  0  0  0
    1.8530   -3.5922    0.0000 C   0  0  0  0  0  0  0  0  0  0  0  0
  1 11  1  0
  2  7  2  0
  3  9  2  0
  4 18  1  0
  4 23  1  0
  5  8  1  0
  5 22  1  0
  6  7  1  0
  6  9  1  0
  6 10  2  0
  7  8  1  0
  8 12  2  0
  9 13  1  0
 10 11  1  0
 11 14  2  0
 12 14  1  0
 13 16  2  0
 15 16  1  0
 15 17  1  0
 15 19  2  0
 17 18  2  0
 18 20  1  0
 19 21  1  0
 20 21  2  0
M  END
> <chembl_id>
CHEMBL1581396

> <chembl_pref_name>
None

$$$$
CHEMBL1540923
     RDKit          2D

 34 37  0  0  0  0  0  0  0  0999 V2000
   -1.4131    2.5853    0.0000 O   0  0  0  0  0  0  0  0  0  0  0  0
    0.3426    2.2122    0.0000 O   0  0  0  0  0  0  0  0  0  0  0  0
   -2.5405    2.4830    0.0000 O   0  0  0  0  0  0  0  0  0  0  0  0
   -2.6460    0.2773    0.0000 O   0  0  0  0  0  0  0  0  0  0  0  0
   -0.0548   -2.2139    0.0000 O   0  0  0  0  0  0  0  0  0  0  0  0
    1.9983    0.5041    0.0000 O   0  0  0  0  0  0  0  0  0  0  0  0
   -1.6241   -2.7238    0.0000 O   0  0  0  0  0  0  0  0  0  0  0  0
   -0.1843    0.8396    0.0000 N   0  0  0  0  0  0  0  0  0  0  0  0
   -0.9380    0.5041    0.0000 C   0  0  0  0  0  0  0  0  0  0  0  0
   -1.4900    1.1172    0.0000 C   0  0  0  0  0  0  0  0  0  0  0  0
   -1.0775    1.8316    0.0000 C   0  0  0  0  0  0  0  0  0  0  0  0
   -0.2705    1.6601    0.0000 C   0  0  0  0  0  0  0  0  0  0  0  0
   -1.1095   -0.3029    0.0000 C   0  0  0  0  0  0  0  0  0  0  0  0
   -2.3105    1.0309    0.0000 C   0  0  0  0  0  0  0  0  0  0  0  0
    0.5302    0.4271    0.0000 C   0  0  0  0  0  0  0  0  0  0  0  0
   -2.7954    1.6984    0.0000 C   0  0  0  0  0  0  0  0  0  0  0  0
   -0.4964   -0.8549    0.0000 C   0  0  0  0  0  0  0  0  0  0  0  0
   -1.8941   -0.5578    0.0000 C   0  0  0  0  0  0  0  0  0  0  0  0
   -0.6679   -1.6619    0.0000 C   0  0  0  0  0  0  0  0  0  0  0  0
    1.2447    0.8396    0.0000 C   0  0  0  0  0  0  0  0  0  0  0  0
   -1.4525   -1.9168    0.0000 C   0  0  0  0  0  0  0  0  0  0  0  0
   -2.0656   -1.3648    0.0000 C   0  0  0  0  0  0  0  0  0  0  0  0
   -3.6204    1.6984    0.0000 C   0  0  0  0  0  0  0  0  0  0  0  0
   -3.2079    2.9679    0.0000 C   0  0  0  0  0  0  0  0  0  0  0  0
   -3.8753    2.4830    0.0000 C   0  0  0  0  0  0  0  0  0  0  0  0
    1.3309    1.6601    0.0000 C   0  0  0  0  0  0  0  0  0  0  0  0
    2.5504    1.1172    0.0000 C   0  0  0  0  0  0  0  0  0  0  0  0
    2.1379    1.8316    0.0000 C   0  0  0  0  0  0  0  0  0  0  0  0
   -3.2079    3.7929    0.0000 C   0  0  0  0  0  0  0  0  0  0  0  0
    0.7298   -1.9590    0.0000 C   0  0  0  0  0  0  0  0  0  0  0  0
   -1.0110   -3.2758    0.0000 C   0  0  0  0  0  0  0  0  0  0  0  0
   -1.1825   -4.0828    0.0000 C   0  0  0  0  0  0  0  0  0  0  0  0
    1.3429   -2.5110    0.0000 C   0  0  0  0  0  0  0  0  0  0  0  0
   -0.5694   -4.6348    0.0000 C   0  0  0  0  0  0  0  0  0  0  0  0
  1 11  1  0
  2 12  2  0
  3 16  1  0
  3 24  1  0
  4 14  2  0
  5 19  1  0
  5 30  1  0
  6 20  1  0
  6 27  1  0
  7 21  1  0
  7 31  1  0
  8  9  1  0
  8 12  1  0
  8 15  1  0
  9 10  1  0
  9 13  1  0
 10 11  2  0
 10 14  1  0
 11 12  1  0
 13 17  1  0
 13 18  2  0
 14 16  1  0
 15 20  1  0
 16 23  2  0
 17 19  2  0
 18 22  1  0
 19 21  1  0
 20 26  2  0
 21 22  2  0
 23 25  1  0
 24 25  2  0
 24 29  1  0
 26 28  1  0
 27 28  2  0
 30 33  1  0
 31 32  1  0
 32 34  1  0
M  END
> <chembl_id>
CHEMBL1540923

> <chembl_pref_name>
None

$$$$
CHEMBL1347122
     RDKit          2D

 28 31  0  0  0  0  0  0  0  0999 V2000
    5.0570   -2.9099    0.0000 S   0  0  0  0  0  0  0  0  0  0  0  0
    0.0165   -3.2455    0.0000 S   0  0  0  0  0  0  0  0  0  0  0  0
    6.9815   -4.0499    0.0000 O   0  0  0  0  0  0  0  0  0  0  0  0
    5.1196   -5.7056    0.0000 O   0  0  0  0  0  0  0  0  0  0  0  0
    2.8744   -4.0705    0.0000 O   0  0  0  0  0  0  0  0  0  0  0  0
    4.3895   -4.0660    0.0000 N   0  0  0  0  0  0  0  0  0  0  0  0
    3.5888   -2.8330    0.0000 N   0  0  0  0  0  0  0  0  0  0  0  0
    5.6090   -3.5230    0.0000 C   0  0  0  0  0  0  0  0  0  0  0  0
    5.1965   -4.2375    0.0000 C   0  0  0  0  0  0  0  0  0  0  0  0
    4.3033   -3.2455    0.0000 C   0  0  0  0  0  0  0  0  0  0  0  0
    6.4295   -3.4368    0.0000 C   0  0  0  0  0  0  0  0  0  0  0  0
    5.5321   -4.9912    0.0000 C   0  0  0  0  0  0  0  0  0  0  0  0
    6.8420   -2.7223    0.0000 C   0  0  0  0  0  0  0  0  0  0  0  0
    6.3390   -5.1627    0.0000 C   0  0  0  0  0  0  0  0  0  0  0  0
    7.7352   -3.7143    0.0000 C   0  0  0  0  0  0  0  0  0  0  0  0
    7.6490   -2.8938    0.0000 C   0  0  0  0  0  0  0  0  0  0  0  0
    5.6716   -6.3187    0.0000 C   0  0  0  0  0  0  0  0  0  0  0  0
    6.4253   -5.9832    0.0000 C   0  0  0  0  0  0  0  0  0  0  0  0
    2.8744   -3.2455    0.0000 C   0  0  0  0  0  0  0  0  0  0  0  0
    2.1599   -2.8330    0.0000 C   0  0  0  0  0  0  0  0  0  0  0  0
    1.4454   -3.2455    0.0000 C   0  0  0  0  0  0  0  0  0  0  0  0
   -0.6980   -2.8330    0.0000 C   0  0  0  0  0  0  0  0  0  0  0  0
    0.7309   -2.8330    0.0000 C   0  0  0  0  0  0  0  0  0  0  0  0
   -1.4125   -3.2455    0.0000 C   0  0  0  0  0  0  0  0  0  0  0  0
   -0.6980   -2.0080    0.0000 C   0  0  0  0  0  0  0  0  0  0  0  0
   -2.1269   -2.8330    0.0000 C   0  0  0  0  0  0  0  0  0  0  0  0
   -1.4125   -1.5955    0.0000 C   0  0  0  0  0  0  0  0  0  0  0  0
   -2.1269   -2.0080    0.0000 C   0  0  0  0  0  0  0  0  0  0  0  0
  1  8  1  0
  1 10  1  0
  2 22  1  0
  2 23  1  0
  3 11  1  0
  3 15  1  0
  4 12  1  0
  4 17  1  0
  5 19  2  0
  6  9  1  0
  6 10  2  0
  7 10  1  0
  7 19  1  0
  8  9  2  0
  8 11  1  0
  9 12  1  0
 11 13  2  0
 12 14  2  0
 13 16  1  0
 14 18  1  0
 15 16  2  0
 17 18  2  0
 19 20  1  0
 20 21  1  0
 21 23  1  0
 22 24  2  0
 22 25  1  0
 24 26  1  0
 25 27  2  0
 26 28  2  0
 27 28  1  0
M  END
> <chembl_id>
CHEMBL1347122

> <chembl_pref_name>
None

$$$$
CHEMBL1562843
     RDKit          2D

 33 37  0  0  0  0  0  0  0  0999 V2000
   -1.4633    0.2124    0.0000 O   0  0  0  0  0  0  0  0  0  0  0  0
   -2.0179   -1.4946    0.0000 O   0  0  0  0  0  0  0  0  0  0  0  0
    1.4115    0.9970    0.0000 O   0  0  0  0  0  0  0  0  0  0  0  0
    0.1486   -2.9621    0.0000 O   0  0  0  0  0  0  0  0  0  0  0  0
   -2.0340   -2.6265    0.0000 O   0  0  0  0  0  0  0  0  0  0  0  0
    2.8970   -0.6454    0.0000 O   0  0  0  0  0  0  0  0  0  0  0  0
   -0.1534   -0.4550    0.0000 N   0  0  0  0  0  0  0  0  0  0  0  0
    1.1566    0.2124    0.0000 N   0  0  0  0  0  0  0  0  0  0  0  0
    0.1016   -1.2396    0.0000 C   0  0  0  0  0  0  0  0  0  0  0  0
   -0.5659   -1.7246    0.0000 C   0  0  0  0  0  0  0  0  0  0  0  0
   -0.9784   -0.4550    0.0000 C   0  0  0  0  0  0  0  0  0  0  0  0
   -1.2333   -1.2396    0.0000 C   0  0  0  0  0  0  0  0  0  0  0  0
    0.8862   -1.4946    0.0000 C   0  0  0  0  0  0  0  0  0  0  0  0
    0.3316    0.2124    0.0000 C   0  0  0  0  0  0  0  0  0  0  0  0
   -0.5659   -2.5496    0.0000 C   0  0  0  0  0  0  0  0  0  0  0  0
   -1.2803   -2.9621    0.0000 C   0  0  0  0  0  0  0  0  0  0  0  0
    1.4993   -0.9425    0.0000 C   0  0  0  0  0  0  0  0  0  0  0  0
    0.0766    0.9970    0.0000 C   0  0  0  0  0  0  0  0  0  0  0  0
    1.0577   -2.3015    0.0000 C   0  0  0  0  0  0  0  0  0  0  0  0
    0.7441    1.4820    0.0000 C   0  0  0  0  0  0  0  0  0  0  0  0
    2.2839   -1.1975    0.0000 C   0  0  0  0  0  0  0  0  0  0  0  0
   -1.3666   -3.7825    0.0000 C   0  0  0  0  0  0  0  0  0  0  0  0
    1.8423   -2.5565    0.0000 C   0  0  0  0  0  0  0  0  0  0  0  0
    2.4554   -2.0045    0.0000 C   0  0  0  0  0  0  0  0  0  0  0  0
   -2.5860   -3.2396    0.0000 C   0  0  0  0  0  0  0  0  0  0  0  0
   -2.1735   -3.9541    0.0000 C   0  0  0  0  0  0  0  0  0  0  0  0
    0.7441    2.3070    0.0000 C   0  0  0  0  0  0  0  0  0  0  0  0
    3.6816   -0.9004    0.0000 C   0  0  0  0  0  0  0  0  0  0  0  0
    4.2947   -0.3484    0.0000 C   0  0  0  0  0  0  0  0  0  0  0  0
    3.8532   -1.7074    0.0000 C   0  0  0  0  0  0  0  0  0  0  0  0
    5.0793   -0.6033    0.0000 C   0  0  0  0  0  0  0  0  0  0  0  0
    4.6378   -1.9623    0.0000 C   0  0  0  0  0  0  0  0  0  0  0  0
    5.2509   -1.4103    0.0000 C   0  0  0  0  0  0  0  0  0  0  0  0
  1 11  2  0
  2 12  1  0
  3  8  1  0
  3 20  1  0
  4 15  2  0
  5 16  1  0
  5 25  1  0
  6 21  1  0
  6 28  1  0
  7  9  1  0
  7 11  1  0
  7 14  1  0
  8 14  2  0
  9 10  1  0
  9 13  1  0
 10 12  2  0
 10 15  1  0
 11 12  1  0
 13 17  1  0
 13 19  2  0
 14 18  1  0
 15 16  1  0
 16 22  2  0
 17 21  2  0
 18 20  2  0
 19 23  1  0
 20 27  1  0
 21 24  1  0
 22 26  1  0
 23 24  2  0
 25 26  2  0
 28 29  2  0
 28 30  1  0
 29 31  1  0
 30 32  2  0
 31 33  2  0
 32 33  1  0
M  END
> <chembl_id>
CHEMBL1562843

> <chembl_pref_name>
None

$$$$
CHEMBL1082144
     RDKit          2D

 39 43  0  0  0  0  0  0  0  0999 V2000
    1.3452  -19.4949    0.0000 O   0  0  0  0  0  0  0  0  0  0  0  0
    2.0393  -19.9356    0.0000 C   0  0  0  0  0  0  0  0  0  0  0  0
    2.7670  -19.5518    0.0000 C   0  0  0  0  0  0  0  0  0  0  0  0
    3.4651  -19.9933    0.0000 C   0  0  0  0  0  0  0  0  0  0  0  0
    3.4313  -20.8186    0.0000 C   0  0  0  0  0  0  0  0  0  0  0  0
    2.7036  -21.2023    0.0000 C   0  0  0  0  0  0  0  0  0  0  0  0
    2.0055  -20.7609    0.0000 O   0  0  0  0  0  0  0  0  0  0  0  0
    2.6668  -22.0221    0.0000 C   0  0  0  0  0  0  0  0  0  0  0  0
    1.3452  -18.6705    0.0000 C   0  0  0  0  0  0  0  0  0  0  0  0
    2.0570  -18.2603    0.0000 O   0  0  0  0  0  0  0  0  0  0  0  0
    2.0570  -17.4358    0.0000 C   0  0  0  0  0  0  0  0  0  0  0  0
    1.3452  -17.0215    0.0000 C   0  0  0  0  0  0  0  0  0  0  0  0
    1.3185  -20.3384    0.0000 H   0  0  0  0  0  0  0  0  0  0  0  0
    0.6308  -18.2603    0.0000 C   0  0  0  0  0  0  0  0  0  0  0  0
    0.6336  -17.4331    0.0000 C   0  0  0  0  0  0  0  0  0  0  0  0
   -0.1508  -17.1715    0.0000 C   0  0  0  0  0  0  0  0  0  0  0  0
   -0.1621  -18.5128    0.0000 C   0  0  0  0  0  0  0  0  0  0  0  0
   -0.6449  -17.8415    0.0000 C   0  0  0  0  0  0  0  0  0  0  0  0
   -0.9865  -18.5966    0.0000 O   0  0  0  0  0  0  0  0  0  0  0  0
   -0.1656  -19.3343    0.0000 C   0  0  0  0  0  0  0  0  0  0  0  0
   -0.3998  -16.3838    0.0000 O   0  0  0  0  0  0  0  0  0  0  0  0
   -1.2281  -16.3634    0.0000 C   0  0  0  0  0  0  0  0  0  0  0  0
   -1.6200  -15.6403    0.0000 C   0  0  0  0  0  0  0  0  0  0  0  0
   -1.6561  -17.0662    0.0000 O   0  0  0  0  0  0  0  0  0  0  0  0
   -1.1826  -14.9391    0.0000 C   0  0  0  0  0  0  0  0  0  0  0  0
   -1.5777  -14.2167    0.0000 C   0  0  0  0  0  0  0  0  0  0  0  0
   -2.4031  -14.1914    0.0000 C   0  0  0  0  0  0  0  0  0  0  0  0
   -2.8352  -14.9018    0.0000 C   0  0  0  0  0  0  0  0  0  0  0  0
   -2.4364  -15.6240    0.0000 C   0  0  0  0  0  0  0  0  0  0  0  0
    0.6314  -16.6030    0.0000 H   0  0  0  0  0  0  0  0  0  0  0  0
    0.6230  -19.0848    0.0000 H   0  0  0  0  0  0  0  0  0  0  0  0
   -1.4435  -17.6264    0.0000 H   0  0  0  0  0  0  0  0  0  0  0  0
    2.8008  -18.7265    0.0000 O   0  0  0  0  0  0  0  0  0  0  0  0
    4.1970  -19.6095    0.0000 O   0  0  0  0  0  0  0  0  0  0  0  0
    4.1265  -21.2586    0.0000 O   0  0  0  0  0  0  0  0  0  0  0  0
    1.9350  -22.4059    0.0000 O   0  0  0  0  0  0  0  0  0  0  0  0
   -0.8805  -19.7441    0.0000 O   0  0  0  0  0  0  0  0  0  0  0  0
   -3.6594  -14.8817    0.0000 O   0  0  0  0  0  0  0  0  0  0  0  0
   -2.7964  -13.4691    0.0000 O   0  0  0  0  0  0  0  0  0  0  0  0
  5  6  1  0
  6  7  1  0
  6  8  1  1
  2  7  1  0
 15 12  1  0
 14  9  1  0
  9 10  1  0
 10 11  1  0
 11 12  2  0
  9  1  1  1
  2 13  1  6
 14 15  1  0
 15 16  1  0
 16 18  1  0
 17 14  1  0
 18 17  1  0
 18 19  1  0
 17 19  1  0
 17 20  1  6
 16 21  1  1
 21 22  1  0
 22 23  1  0
 22 24  2  0
 23 25  2  0
 25 26  1  0
 26 27  2  0
 27 28  1  0
 28 29  2  0
 29 23  1  0
 15 30  1  1
 14 31  1  1
 18 32  1  6
  2  1  1  0
  2  3  1  0
  3  4  1  0
  4  5  1  0
  8 36  1  0
  4 34  1  1
 20 37  1  0
  3 33  1  6
 28 38  1  0
  5 35  1  6
 27 39  1  0
M  END
> <chembl_id>
CHEMBL1082144

> <chembl_pref_name>
VERPROSIDE

$$$$
CHEMBL1438291
     RDKit          2D

 33 36  0  0  0  0  0  0  0  0999 V2000
   -0.9802    3.1299    0.0000 F   0  0  0  0  0  0  0  0  0  0  0  0
    0.9277    0.0639    0.0000 O   0  0  0  0  0  0  0  0  0  0  0  0
    1.4823    1.7709    0.0000 O   0  0  0  0  0  0  0  0  0  0  0  0
   -0.5316   -0.6897    0.0000 O   0  0  0  0  0  0  0  0  0  0  0  0
   -4.1491    0.4089    0.0000 O   0  0  0  0  0  0  0  0  0  0  0  0
    0.0303    2.0009    0.0000 N   0  0  0  0  0  0  0  0  0  0  0  0
   -0.6842    3.2384    0.0000 N   0  0  0  0  0  0  0  0  0  0  0  0
   -0.6372    1.5160    0.0000 C   0  0  0  0  0  0  0  0  0  0  0  0
   -0.3822    0.7314    0.0000 C   0  0  0  0  0  0  0  0  0  0  0  0
    0.4428    0.7314    0.0000 C   0  0  0  0  0  0  0  0  0  0  0  0
    0.6977    1.5160    0.0000 C   0  0  0  0  0  0  0  0  0  0  0  0
   -1.4218    1.7709    0.0000 C   0  0  0  0  0  0  0  0  0  0  0  0
   -0.8672    0.0639    0.0000 C   0  0  0  0  0  0  0  0  0  0  0  0
    0.0303    2.8259    0.0000 C   0  0  0  0  0  0  0  0  0  0  0  0
   -1.6877    0.1502    0.0000 C   0  0  0  0  0  0  0  0  0  0  0  0
   -1.5933    2.5779    0.0000 C   0  0  0  0  0  0  0  0  0  0  0  0
   -2.0349    1.2189    0.0000 C   0  0  0  0  0  0  0  0  0  0  0  0
    0.7447    3.2384    0.0000 C   0  0  0  0  0  0  0  0  0  0  0  0
   -2.1726   -0.5173    0.0000 C   0  0  0  0  0  0  0  0  0  0  0  0
   -2.0232    0.9038    0.0000 C   0  0  0  0  0  0  0  0  0  0  0  0
   -2.3780    2.8328    0.0000 C   0  0  0  0  0  0  0  0  0  0  0  0
   -2.9931   -0.4310    0.0000 C   0  0  0  0  0  0  0  0  0  0  0  0
   -2.8195    1.4738    0.0000 C   0  0  0  0  0  0  0  0  0  0  0  0
   -3.3286    0.3226    0.0000 C   0  0  0  0  0  0  0  0  0  0  0  0
   -2.8437    0.9901    0.0000 C   0  0  0  0  0  0  0  0  0  0  0  0
   -2.9911    2.2808    0.0000 C   0  0  0  0  0  0  0  0  0  0  0  0
   -0.6842    4.0634    0.0000 C   0  0  0  0  0  0  0  0  0  0  0  0
    0.7447    4.0634    0.0000 C   0  0  0  0  0  0  0  0  0  0  0  0
    0.0303    4.4759    0.0000 C   0  0  0  0  0  0  0  0  0  0  0  0
   -3.4780   -1.0985    0.0000 C   0  0  0  0  0  0  0  0  0  0  0  0
   -4.4847    1.1625    0.0000 C   0  0  0  0  0  0  0  0  0  0  0  0
   -5.3051    1.2488    0.0000 C   0  0  0  0  0  0  0  0  0  0  0  0
   -5.6407    2.0025    0.0000 C   0  0  0  0  0  0  0  0  0  0  0  0
  1 16  1  0
  2 10  1  0
  3 11  2  0
  4 13  2  0
  5 24  1  0
  5 31  1  0
  6  8  1  0
  6 11  1  0
  6 14  1  0
  7 14  1  0
  7 27  2  0
  8  9  1  0
  8 12  1  0
  9 10  2  0
  9 13  1  0
 10 11  1  0
 12 16  1  0
 12 17  2  0
 13 15  1  0
 14 18  2  0
 15 19  1  0
 15 20  2  0
 16 21  2  0
 17 23  1  0
 18 28  1  0
 19 22  2  0
 20 25  1  0
 21 26  1  0
 22 24  1  0
 22 30  1  0
 23 26  2  0
 24 25  2  0
 27 29  1  0
 28 29  2  0
 31 32  1  0
 32 33  1  0
M  END
> <chembl_id>
CHEMBL1438291

> <chembl_pref_name>
None

$$$$
CHEMBL1909743
     RDKit          2D

 29 32  0  0  0  0  0  0  0  0999 V2000
   -1.7860   -0.4113    0.0000 C   0  0  0  0  0  0  0  0  0  0  0  0
   -1.7853    0.4137    0.0000 C   0  0  0  0  0  0  0  0  0  0  0  0
   -1.0705    0.8256    0.0000 C   0  0  0  0  0  0  0  0  0  0  0  0
   -0.3563    0.4125    0.0000 C   0  0  0  0  0  0  0  0  0  0  0  0
    0.3585    0.8244    0.0000 C   0  0  0  0  0  0  0  0  0  0  0  0
    1.0726    0.4113    0.0000 C   0  0  0  0  0  0  0  0  0  0  0  0
    1.0719   -0.4137    0.0000 C   0  0  0  0  0  0  0  0  0  0  0  0
    0.3571   -0.8256    0.0000 C   0  0  0  0  0  0  0  0  0  0  0  0
   -0.3571   -0.4125    0.0000 C   0  0  0  0  0  0  0  0  0  0  0  0
   -1.0719   -0.8244    0.0000 O   0  0  0  0  0  0  0  0  0  0  0  0
   -1.0698    1.6506    0.0000 O   0  0  0  0  0  0  0  0  0  0  0  0
    0.3592    1.6494    0.0000 O   0  0  0  0  0  0  0  0  0  0  0  0
    1.7874    0.8232    0.0000 O   0  0  0  0  0  0  0  0  0  0  0  0
    2.5015    0.4100    0.0000 C   0  0  0  0  0  0  0  0  0  0  0  0
    3.2164    0.8219    0.0000 C   0  0  0  0  0  0  0  0  0  0  0  0
    3.2171    1.6469    0.0000 C   0  0  0  0  0  0  0  0  0  0  0  0
    3.9319    2.0588    0.0000 C   0  0  0  0  0  0  0  0  0  0  0  0
    4.6460    1.6457    0.0000 C   0  0  0  0  0  0  0  0  0  0  0  0
    4.6453    0.8207    0.0000 C   0  0  0  0  0  0  0  0  0  0  0  0
    3.9305    0.4088    0.0000 C   0  0  0  0  0  0  0  0  0  0  0  0
   -2.5008   -0.8232    0.0000 O   0  0  0  0  0  0  0  0  0  0  0  0
   -3.2149   -0.4100    0.0000 C   0  0  0  0  0  0  0  0  0  0  0  0
   -3.9298   -0.8219    0.0000 C   0  0  0  0  0  0  0  0  0  0  0  0
   -3.9305   -1.6469    0.0000 C   0  0  0  0  0  0  0  0  0  0  0  0
   -4.6453   -2.0588    0.0000 C   0  0  0  0  0  0  0  0  0  0  0  0
   -5.3594   -1.6457    0.0000 C   0  0  0  0  0  0  0  0  0  0  0  0
   -5.3587   -0.8207    0.0000 C   0  0  0  0  0  0  0  0  0  0  0  0
   -4.6439   -0.4088    0.0000 C   0  0  0  0  0  0  0  0  0  0  0  0
    5.3594    0.4076    0.0000 Cl  0  0  0  0  0  0  0  0  0  0  0  0
  1  2  2  0
  2  3  1  0
  3  4  1  0
  4  5  1  0
  5  6  2  0
  6  7  1  0
  7  8  2  0
  8  9  1  0
  4  9  2  0
  9 10  1  0
  1 10  1  0
  3 11  2  0
  5 12  1  0
 14 15  1  0
 15 16  1  0
 16 17  2  0
 17 18  1  0
 18 19  2  0
 19 20  1  0
 15 20  2  0
 13 14  1  0
  6 13  1  0
 22 23  1  0
 23 24  1  0
 24 25  2  0
 25 26  1  0
 26 27  2  0
 27 28  1  0
 23 28  2  0
 21 22  1  0
  1 21  1  0
 19 29  1  0
M  END
> <chembl_id>
CHEMBL1909743

> <chembl_pref_name>
None

$$$$
CHEMBL3965951
     RDKit          2D

 26 30  0  0  0  0  0  0  0  0999 V2000
   11.8273   -9.9147    0.0000 N   0  0  0  0  0  0  0  0  0  0  0  0
   11.7582  -10.7273    0.0000 C   0  0  0  0  0  0  0  0  0  0  0  0
   12.5066  -11.0485    0.0000 C   0  0  0  0  0  0  0  0  0  0  0  0
   13.0452  -10.4307    0.0000 C   0  0  0  0  0  0  0  0  0  0  0  0
   13.8622  -10.4157    0.0000 C   0  0  0  0  0  0  0  0  0  0  0  0
   14.2546   -9.6992    0.0000 C   0  0  0  0  0  0  0  0  0  0  0  0
   13.8341   -8.9979    0.0000 C   0  0  0  0  0  0  0  0  0  0  0  0
   13.0171   -9.0171    0.0000 C   0  0  0  0  0  0  0  0  0  0  0  0
   12.6206   -9.7294    0.0000 C   0  0  0  0  0  0  0  0  0  0  0  0
   11.0569  -11.1519    0.0000 C   0  0  0  0  0  0  0  0  0  0  0  0
   10.3404  -10.7553    0.0000 O   0  0  0  0  0  0  0  0  0  0  0  0
   11.0720  -11.9688    0.0000 N   0  0  0  0  0  0  0  0  0  0  0  0
   10.3706  -12.3893    0.0000 N   0  0  0  0  0  0  0  0  0  0  0  0
   11.1172  -14.4197    0.0000 C   0  0  0  0  0  0  0  0  0  0  0  0
   10.4200  -14.8402    0.0000 N   0  0  0  0  0  0  0  0  0  0  0  0
    9.7036  -14.4478    0.0000 C   0  0  0  0  0  0  0  0  0  0  0  0
    9.6885  -13.6308    0.0000 C   0  0  0  0  0  0  0  0  0  0  0  0
   10.3857  -13.2062    0.0000 C   0  0  0  0  0  0  0  0  0  0  0  0
   11.1021  -13.6028    0.0000 N   0  0  0  0  0  0  0  0  0  0  0  0
    8.9042  -13.3902    0.0000 C   0  0  0  0  0  0  0  0  0  0  0  0
    8.4390  -14.0628    0.0000 C   0  0  0  0  0  0  0  0  0  0  0  0
    8.9296  -14.7122    0.0000 S   0  0  0  0  0  0  0  0  0  0  0  0
    7.6222  -13.9897    0.0000 C   0  0  0  0  0  0  0  0  0  0  0  0
    7.2790  -13.2521    0.0000 C   0  0  0  0  0  0  0  0  0  0  0  0
    7.7442  -12.5794    0.0000 C   0  0  0  0  0  0  0  0  0  0  0  0
    8.5569  -12.6526    0.0000 C   0  0  0  0  0  0  0  0  0  0  0  0
  1  2  1  0
  2  3  2  0
  3  4  1  0
  4  5  1  0
  5  6  2  0
  6  7  1  0
  7  8  2  0
  8  9  1  0
  1  9  1  0
  4  9  2  0
 12 13  1  0
 10 11  2  0
 10 12  1  0
  2 10  1  0
 14 15  1  0
 15 16  2  0
 16 17  1  0
 17 18  2  0
 18 19  1  0
 14 19  2  0
 20 21  2  0
 21 22  1  0
 23 24  1  0
 24 25  1  0
 25 26  1  0
 20 26  1  0
 21 23  1  0
 16 22  1  0
 17 20  1  0
 13 18  1  0
M  END
> <chembl_id>
CHEMBL3965951

> <chembl_pref_name>
None

$$$$
CHEMBL1092202
     RDKit          2D

 28 31  0  0  0  0  0  0  0  0999 V2000
    4.3794  -19.4154    0.0000 C   0  0  0  0  0  0  0  0  0  0  0  0
    4.3794  -20.2411    0.0000 C   0  0  0  0  0  0  0  0  0  0  0  0
    5.0905  -20.6517    0.0000 C   0  0  0  0  0  0  0  0  0  0  0  0
    5.8016  -20.2411    0.0000 C   0  0  0  0  0  0  0  0  0  0  0  0
    5.8011  -19.4135    0.0000 C   0  0  0  0  0  0  0  0  0  0  0  0
    5.0905  -19.0003    0.0000 C   0  0  0  0  0  0  0  0  0  0  0  0
    6.5148  -20.6574    0.0000 N   0  0  0  0  0  0  0  0  0  0  0  0
    7.2338  -20.2434    0.0000 C   0  0  0  0  0  0  0  0  0  0  0  0
    7.9453  -20.6607    0.0000 C   0  0  0  0  0  0  0  0  0  0  0  0
    8.6591  -20.2474    0.0000 C   0  0  0  0  0  0  0  0  0  0  0  0
    8.6610  -19.4208    0.0000 C   0  0  0  0  0  0  0  0  0  0  0  0
    7.9423  -19.0092    0.0000 C   0  0  0  0  0  0  0  0  0  0  0  0
    7.9428  -21.4818    0.0000 C   0  0  0  0  0  0  0  0  0  0  0  0
    7.2278  -21.8948    0.0000 O   0  0  0  0  0  0  0  0  0  0  0  0
    8.6555  -21.8990    0.0000 N   0  0  0  0  0  0  0  0  0  0  0  0
    5.0905  -21.4774    0.0000 O   0  0  0  0  0  0  0  0  0  0  0  0
    4.3767  -21.8880    0.0000 C   0  0  0  0  0  0  0  0  0  0  0  0
    6.5157  -19.0044    0.0000 C   0  0  0  0  0  0  0  0  0  0  0  0
    7.2333  -19.4164    0.0000 C   0  0  0  0  0  0  0  0  0  0  0  0
    6.5175  -18.1786    0.0000 O   0  0  0  0  0  0  0  0  0  0  0  0
    9.3704  -21.4859    0.0000 C   0  0  0  0  0  0  0  0  0  0  0  0
    9.3748  -19.0103    0.0000 Cl  0  0  0  0  0  0  0  0  0  0  0  0
   10.0836  -21.9047    0.0000 N   0  0  0  0  0  0  0  0  0  0  0  0
   10.7980  -21.4923    0.0000 C   0  0  0  0  0  0  0  0  0  0  0  0
   10.8010  -20.6656    0.0000 C   0  0  0  0  0  0  0  0  0  0  0  0
   10.0827  -20.2532    0.0000 C   0  0  0  0  0  0  0  0  0  0  0  0
    9.3670  -20.6635    0.0000 C   0  0  0  0  0  0  0  0  0  0  0  0
   10.0820  -19.4274    0.0000 Cl  0  0  0  0  0  0  0  0  0  0  0  0
  9 13  1  0
 13 14  2  0
  4  7  1  0
 13 15  1  0
  1  2  1  0
  3 16  1  0
  7  8  1  0
 16 17  1  0
  1  6  2  0
  5 18  1  0
  8  9  1  0
 18 19  1  0
  2  3  2  0
 18 20  2  0
  9 10  2  0
 15 21  1  0
  3  4  1  0
 11 22  1  0
 10 11  1  0
 21 23  2  0
  4  5  2  0
 23 24  1  0
 11 12  2  0
 24 25  2  0
 12 19  1  0
 25 26  1  0
 19  8  2  0
 26 27  2  0
 27 21  1  0
  5  6  1  0
 26 28  1  0
M  END
> <chembl_id>
CHEMBL1092202

> <chembl_pref_name>
None

$$$$
CHEMBL53605
     RDKit          2D

 19 21  0  0  0  0  0  0  0  0999 V2000
    1.7000   -5.2750    0.0000 N   0  0  0  0  0  0  0  0  0  0  0  0
    1.1792   -4.3750    0.0000 N   0  0  0  0  0  0  0  0  0  0  0  0
    1.1792   -4.9750    0.0000 C   0  0  0  0  0  0  0  0  0  0  0  0
    2.2250   -4.9667    0.0000 C   0  0  0  0  0  0  0  0  0  0  0  0
    2.2167   -4.3667    0.0000 C   0  0  0  0  0  0  0  0  0  0  0  0
    1.7000   -4.0667    0.0000 C   0  0  0  0  0  0  0  0  0  0  0  0
    2.7917   -4.1792    0.0000 N   0  0  0  0  0  0  0  0  0  0  0  0
    2.8000   -5.1542    0.0000 N   0  0  0  0  0  0  0  0  0  0  0  0
    3.1500   -4.6625    0.0000 C   0  0  0  0  0  0  0  0  0  0  0  0
    0.6625   -5.2750    0.0000 N   0  0  0  0  0  0  0  0  0  0  0  0
   -0.3708   -4.0667    0.0000 C   0  0  0  0  0  0  0  0  0  0  0  0
    0.1417   -4.3750    0.0000 C   0  0  0  0  0  0  0  0  0  0  0  0
    0.1417   -4.9750    0.0000 C   0  0  0  0  0  0  0  0  0  0  0  0
   -0.8958   -4.3667    0.0000 C   0  0  0  0  0  0  0  0  0  0  0  0
    1.6917   -3.4667    0.0000 N   0  0  0  0  0  0  0  0  0  0  0  0
   -0.8958   -4.9750    0.0000 C   0  0  0  0  0  0  0  0  0  0  0  0
   -0.3708   -3.4667    0.0000 Cl  0  0  0  0  0  0  0  0  0  0  0  0
   -0.3708   -5.2750    0.0000 C   0  0  0  0  0  0  0  0  0  0  0  0
   -1.3208   -3.9417    0.0000 Cl  0  0  0  0  0  0  0  0  0  0  0  0
  2  3  1  0
  3  1  2  0
  4  1  1  0
  5  4  1  0
  6  5  2  0
  7  5  1  0
  8  4  2  0
  9  8  1  0
 10  3  1  0
 11 12  2  0
 12 13  1  0
 13 10  1  0
 14 16  2  0
 15  6  1  0
 16 18  1  0
 17 11  1  0
 18 13  2  0
 19 14  1  0
  7  9  2  0
  2  6  1  0
 14 11  1  0
M  END
> <chembl_id>
CHEMBL53605

> <chembl_pref_name>
None

$$$$
CHEMBL1771795
     RDKit          2D

 28 31  0  0  0  0  0  0  0  0999 V2000
   10.2027   -6.0333    0.0000 C   0  0  0  0  0  0  0  0  0  0  0  0
   10.2016   -6.8607    0.0000 C   0  0  0  0  0  0  0  0  0  0  0  0
   10.9164   -7.2735    0.0000 C   0  0  0  0  0  0  0  0  0  0  0  0
   10.9146   -5.6205    0.0000 C   0  0  0  0  0  0  0  0  0  0  0  0
   11.6300   -6.0297    0.0000 C   0  0  0  0  0  0  0  0  0  0  0  0
   11.6288   -6.8627    0.0000 C   0  0  0  0  0  0  0  0  0  0  0  0
   12.3457   -7.2780    0.0000 N   0  0  0  0  0  0  0  0  0  0  0  0
   13.0683   -6.8648    0.0000 C   0  0  0  0  0  0  0  0  0  0  0  0
   13.0695   -6.0317    0.0000 C   0  0  0  0  0  0  0  0  0  0  0  0
   12.3481   -5.6119    0.0000 C   0  0  0  0  0  0  0  0  0  0  0  0
   13.7816   -7.2793    0.0000 C   0  0  0  0  0  0  0  0  0  0  0  0
    9.4868   -7.2726    0.0000 O   0  0  0  0  0  0  0  0  0  0  0  0
    8.7726   -6.8595    0.0000 C   0  0  0  0  0  0  0  0  0  0  0  0
    8.0578   -7.2715    0.0000 C   0  0  0  0  0  0  0  0  0  0  0  0
   12.3481   -4.7869    0.0000 N   0  0  0  0  0  0  0  0  0  0  0  0
   13.0626   -4.3744    0.0000 N   0  0  0  0  0  0  0  0  0  0  0  0
   13.7770   -4.7869    0.0000 C   0  0  0  0  0  0  0  0  0  0  0  0
   14.4915   -4.3745    0.0000 C   0  0  0  0  0  0  0  0  0  0  0  0
   13.7770   -5.6119    0.0000 O   0  0  0  0  0  0  0  0  0  0  0  0
   15.2025   -4.7880    0.0000 N   0  0  0  0  0  0  0  0  0  0  0  0
   15.9165   -4.3762    0.0000 C   0  0  0  0  0  0  0  0  0  0  0  0
   14.4864   -3.5521    0.0000 C   0  0  0  0  0  0  0  0  0  0  0  0
   15.1975   -3.1380    0.0000 C   0  0  0  0  0  0  0  0  0  0  0  0
   15.9136   -3.5517    0.0000 C   0  0  0  0  0  0  0  0  0  0  0  0
   16.6279   -3.1385    0.0000 C   0  0  0  0  0  0  0  0  0  0  0  0
   16.6272   -2.3116    0.0000 C   0  0  0  0  0  0  0  0  0  0  0  0
   15.9064   -1.8998    0.0000 C   0  0  0  0  0  0  0  0  0  0  0  0
   15.1950   -2.3154    0.0000 C   0  0  0  0  0  0  0  0  0  0  0  0
  3  6  2  0
 13 14  1  0
  1  2  2  0
 10 15  1  0
  5  4  2  0
 15 16  1  0
  4  1  1  0
 16 17  1  0
  5 10  1  0
 17 18  1  0
  6  7  1  0
 17 19  2  0
  7  8  2  0
 18 20  2  0
  8  9  1  0
 20 21  1  0
 21 24  2  0
  9 10  2  0
 23 22  2  0
 22 18  1  0
  5  6  1  0
  8 11  1  0
 23 24  1  0
 24 25  1  0
  2 12  1  0
 25 26  2  0
  2  3  1  0
 26 27  1  0
 12 13  1  0
 27 28  2  0
 28 23  1  0
M  END
> <chembl_id>
CHEMBL1771795

> <chembl_pref_name>
None

$$$$
CHEMBL549646
     RDKit          2D

 23 25  0  0  0  0  0  0  0  0999 V2000
   -4.6873    1.3444    0.0000 C   0  0  0  0  0  0  0  0  0  0  0  0
   -5.4017    0.9319    0.0000 C   0  0  0  0  0  0  0  0  0  0  0  0
   -5.4017    0.1069    0.0000 C   0  0  0  0  0  0  0  0  0  0  0  0
   -4.6873   -0.3056    0.0000 C   0  0  0  0  0  0  0  0  0  0  0  0
   -3.9728    0.1069    0.0000 C   0  0  0  0  0  0  0  0  0  0  0  0
   -3.9728    0.9319    0.0000 C   0  0  0  0  0  0  0  0  0  0  0  0
   -3.2583    1.3444    0.0000 C   0  0  0  0  0  0  0  0  0  0  0  0
   -2.5438    0.9319    0.0000 N   0  0  0  0  0  0  0  0  0  0  0  0
   -1.8294    1.3444    0.0000 C   0  0  0  0  0  0  0  0  0  0  0  0
   -1.1149    0.9319    0.0000 C   0  0  0  0  0  0  0  0  0  0  0  0
   -0.4004    1.3444    0.0000 O   0  0  0  0  0  0  0  0  0  0  0  0
   -0.4004   -0.3056    0.0000 C   0  0  0  0  0  0  0  0  0  0  0  0
   -1.1149    0.1069    0.0000 C   0  0  0  0  0  0  0  0  0  0  0  0
    0.3140    0.1069    0.0000 C   0  0  0  0  0  0  0  0  0  0  0  0
    0.3140    0.9319    0.0000 C   0  0  0  0  0  0  0  0  0  0  0  0
    1.0285    1.3444    0.0000 C   0  0  0  0  0  0  0  0  0  0  0  0
    1.7430    0.9319    0.0000 C   0  0  0  0  0  0  0  0  0  0  0  0
    1.7430    0.1069    0.0000 C   0  0  0  0  0  0  0  0  0  0  0  0
    1.0285   -0.3056    0.0000 C   0  0  0  0  0  0  0  0  0  0  0  0
   -0.4004   -1.1306    0.0000 O   0  0  0  0  0  0  0  0  0  0  0  0
    1.0285   -1.1306    0.0000 O   0  0  0  0  0  0  0  0  0  0  0  0
    2.4575   -0.3056    0.0000 O   0  0  0  0  0  0  0  0  0  0  0  0
   -6.1162   -0.3056    0.0000 Cl  0  0  0  0  0  0  0  0  0  0  0  0
  5  6  2  0
  6  1  1  0
 10 13  2  0
 11 15  1  0
 14 12  1  0
 12 13  1  0
  1  2  2  0
  6  7  1  0
 14 15  2  0
  3  4  2  0
 15 16  1  0
  7  8  1  0
 16 17  2  0
 17 18  1  0
  8  9  1  0
 18 19  2  0
 19 14  1  0
  4  5  1  0
 12 20  2  0
  9 10  1  0
 19 21  1  0
 10 11  1  0
 18 22  1  0
  2  3  1  0
  3 23  1  0
M  END
> <chembl_id>
CHEMBL549646

> <chembl_pref_name>
None

$$$$
CHEMBL1449425
     RDKit          2D

 31 33  0  0  0  0  0  0  0  0999 V2000
   -3.0925    0.3745    0.0000 O   0  0  0  0  0  0  0  0  0  0  0  0
   -4.5214    5.3245    0.0000 O   0  0  0  0  0  0  0  0  0  0  0  0
   -4.5214   -3.7505    0.0000 O   0  0  0  0  0  0  0  0  0  0  0  0
   -3.0925   -3.7505    0.0000 O   0  0  0  0  0  0  0  0  0  0  0  0
   -3.0925    5.3245    0.0000 N   0  0  0  0  0  0  0  0  0  0  0  0
   -5.2359    3.2620    0.0000 N   0  0  0  0  0  0  0  0  0  0  0  0
   -3.0925    2.8495    0.0000 C   0  0  0  0  0  0  0  0  0  0  0  0
   -3.0925    1.1995    0.0000 C   0  0  0  0  0  0  0  0  0  0  0  0
   -3.8070    4.0870    0.0000 C   0  0  0  0  0  0  0  0  0  0  0  0
   -3.8070   -0.8630    0.0000 C   0  0  0  0  0  0  0  0  0  0  0  0
   -3.0925    3.6745    0.0000 C   0  0  0  0  0  0  0  0  0  0  0  0
   -3.8070   -2.5130    0.0000 C   0  0  0  0  0  0  0  0  0  0  0  0
   -3.8070    4.9120    0.0000 C   0  0  0  0  0  0  0  0  0  0  0  0
   -2.3780    2.4370    0.0000 C   0  0  0  0  0  0  0  0  0  0  0  0
   -3.8070    2.4370    0.0000 C   0  0  0  0  0  0  0  0  0  0  0  0
   -2.3780    1.6120    0.0000 C   0  0  0  0  0  0  0  0  0  0  0  0
   -3.8070    1.6120    0.0000 C   0  0  0  0  0  0  0  0  0  0  0  0
   -3.8070   -0.0380    0.0000 C   0  0  0  0  0  0  0  0  0  0  0  0
   -3.0925   -1.2755    0.0000 C   0  0  0  0  0  0  0  0  0  0  0  0
   -4.5214   -1.2755    0.0000 C   0  0  0  0  0  0  0  0  0  0  0  0
   -3.0925   -2.1005    0.0000 C   0  0  0  0  0  0  0  0  0  0  0  0
   -4.5214   -2.1005    0.0000 C   0  0  0  0  0  0  0  0  0  0  0  0
   -3.8070   -3.3380    0.0000 C   0  0  0  0  0  0  0  0  0  0  0  0
   -4.5214    3.6745    0.0000 C   0  0  0  0  0  0  0  0  0  0  0  0
   -2.3780    6.5620    0.0000 C   0  0  0  0  0  0  0  0  0  0  0  0
   -3.0925    6.1495    0.0000 C   0  0  0  0  0  0  0  0  0  0  0  0
   -2.3780    7.3870    0.0000 C   0  0  0  0  0  0  0  0  0  0  0  0
   -1.6635    6.1495    0.0000 C   0  0  0  0  0  0  0  0  0  0  0  0
   -1.6635    7.7995    0.0000 C   0  0  0  0  0  0  0  0  0  0  0  0
   -0.9491    6.5620    0.0000 C   0  0  0  0  0  0  0  0  0  0  0  0
   -0.9491    7.3870    0.0000 C   0  0  0  0  0  0  0  0  0  0  0  0
  1  8  1  0
  1 18  1  0
  2 13  2  0
  3 23  2  0
  4 23  1  0
  5 13  1  0
  5 26  1  0
  6 24  3  0
  7 11  1  0
  7 14  2  0
  7 15  1  0
  8 16  2  0
  8 17  1  0
  9 11  2  0
  9 13  1  0
  9 24  1  0
 10 18  1  0
 10 19  2  0
 10 20  1  0
 12 21  2  0
 12 22  1  0
 12 23  1  0
 14 16  1  0
 15 17  2  0
 19 21  1  0
 20 22  2  0
 25 26  1  0
 25 27  2  0
 25 28  1  0
 27 29  1  0
 28 30  2  0
 29 31  2  0
 30 31  1  0
M  END
> <chembl_id>
CHEMBL1449425

> <chembl_pref_name>
None

$$$$
CHEMBL4076373
     RDKit          2D

 30 32  0  0  0  0  0  0  0  0999 V2000
   19.9015  -16.7854    0.0000 O   0  0  0  0  0  0  0  0  0  0  0  0
   19.4970  -16.0797    0.0000 S   0  0  0  0  0  0  0  0  0  0  0  0
   19.0881  -16.7828    0.0000 O   0  0  0  0  0  0  0  0  0  0  0  0
   27.5740  -13.7395    0.0000 O   0  0  0  0  0  0  0  0  0  0  0  0
   27.9867  -14.4494    0.0000 S   0  0  0  0  0  0  0  0  0  0  0  0
   28.3952  -13.7371    0.0000 O   0  0  0  0  0  0  0  0  0  0  0  0
   23.0382  -14.8498    0.0000 C   0  0  0  0  0  0  0  0  0  0  0  0
   23.0382  -15.6670    0.0000 N   0  0  0  0  0  0  0  0  0  0  0  0
   23.7435  -16.0714    0.0000 C   0  0  0  0  0  0  0  0  0  0  0  0
   24.4487  -15.6670    0.0000 C   0  0  0  0  0  0  0  0  0  0  0  0
   24.4487  -14.8498    0.0000 N   0  0  0  0  0  0  0  0  0  0  0  0
   23.7435  -14.4370    0.0000 C   0  0  0  0  0  0  0  0  0  0  0  0
   25.1577  -14.4432    0.0000 C   0  0  0  0  0  0  0  0  0  0  0  0
   25.8642  -14.8539    0.0000 C   0  0  0  0  0  0  0  0  0  0  0  0
   26.5731  -14.4474    0.0000 C   0  0  0  0  0  0  0  0  0  0  0  0
   27.2796  -14.8581    0.0000 N   0  0  0  0  0  0  0  0  0  0  0  0
   28.6950  -14.8622    0.0000 C   0  0  0  0  0  0  0  0  0  0  0  0
   22.3311  -16.0766    0.0000 C   0  0  0  0  0  0  0  0  0  0  0  0
   21.6228  -15.6690    0.0000 C   0  0  0  0  0  0  0  0  0  0  0  0
   20.9157  -16.0786    0.0000 C   0  0  0  0  0  0  0  0  0  0  0  0
   20.2074  -15.6711    0.0000 N   0  0  0  0  0  0  0  0  0  0  0  0
   18.7919  -15.6731    0.0000 C   0  0  0  0  0  0  0  0  0  0  0  0
   28.7771  -15.6750    0.0000 S   0  0  0  0  0  0  0  0  0  0  0  0
   29.5783  -15.8488    0.0000 C   0  0  0  0  0  0  0  0  0  0  0  0
   29.9911  -15.1405    0.0000 C   0  0  0  0  0  0  0  0  0  0  0  0
   29.4450  -14.5291    0.0000 C   0  0  0  0  0  0  0  0  0  0  0  0
   18.7043  -14.8647    0.0000 S   0  0  0  0  0  0  0  0  0  0  0  0
   17.9081  -14.6960    0.0000 C   0  0  0  0  0  0  0  0  0  0  0  0
   17.5015  -15.4011    0.0000 C   0  0  0  0  0  0  0  0  0  0  0  0
   18.0465  -16.0055    0.0000 C   0  0  0  0  0  0  0  0  0  0  0  0
  2  1  2  0
  3  2  2  0
  5  4  2  0
  6  5  2  0
  7  8  1  0
  7 12  1  0
  8  9  1  0
  9 10  1  0
 10 11  1  0
 11 12  1  0
 11 13  1  0
 13 14  1  0
 14 15  1  0
 15 16  1  0
 16  5  1  0
  5 17  1  0
  8 18  1  0
 18 19  1  0
 19 20  1  0
 20 21  1  0
 21  2  1  0
  2 22  1  0
 17 23  1  0
 23 24  1  0
 24 25  2  0
 25 26  1  0
 26 17  2  0
 22 27  1  0
 27 28  1  0
 28 29  2  0
 29 30  1  0
 30 22  2  0
M  END
> <chembl_id>
CHEMBL4076373

> <chembl_pref_name>
None

$$$$
CHEMBL1254679
     RDKit          2D

 33 36  0  0  0  0  0  0  0  0999 V2000
   15.9769  -15.1620    0.0000 C   0  0  0  0  0  0  0  0  0  0  0  0
   15.1275  -15.1839    0.0000 C   0  0  0  0  0  0  0  0  0  0  0  0
   14.6511  -15.8323    0.0000 C   0  0  0  0  0  0  0  0  0  0  0  0
   16.4980  -15.8082    0.0000 C   0  0  0  0  0  0  0  0  0  0  0  0
   16.3095  -16.6062    0.0000 C   0  0  0  0  0  0  0  0  0  0  0  0
   15.5347  -16.9719    0.0000 C   0  0  0  0  0  0  0  0  0  0  0  0
   14.8276  -16.6224    0.0000 C   0  0  0  0  0  0  0  0  0  0  0  0
   14.7456  -14.4529    0.0000 O   0  0  0  0  0  0  0  0  0  0  0  0
   16.3227  -14.4133    0.0000 O   0  0  0  0  0  0  0  0  0  0  0  0
   17.3227  -15.8069    0.0000 C   0  0  0  0  0  0  0  0  0  0  0  0
   17.7361  -16.5205    0.0000 N   0  0  0  0  0  0  0  0  0  0  0  0
   13.8277  -15.8678    0.0000 C   0  0  0  0  0  0  0  0  0  0  0  0
   13.3842  -15.1727    0.0000 N   0  0  0  0  0  0  0  0  0  0  0  0
   15.5273  -17.7966    0.0000 C   0  0  0  0  0  0  0  0  0  0  0  0
   14.8093  -18.2025    0.0000 N   0  0  0  0  0  0  0  0  0  0  0  0
   17.3217  -17.2357    0.0000 C   0  0  0  0  0  0  0  0  0  0  0  0
   17.7316  -17.9471    0.0000 C   0  0  0  0  0  0  0  0  0  0  0  0
   18.5567  -17.9501    0.0000 C   0  0  0  0  0  0  0  0  0  0  0  0
   18.9701  -17.2354    0.0000 C   0  0  0  0  0  0  0  0  0  0  0  0
   18.5585  -16.5178    0.0000 C   0  0  0  0  0  0  0  0  0  0  0  0
   13.7645  -14.4378    0.0000 C   0  0  0  0  0  0  0  0  0  0  0  0
   13.3245  -13.7445    0.0000 C   0  0  0  0  0  0  0  0  0  0  0  0
   12.5001  -13.7768    0.0000 C   0  0  0  0  0  0  0  0  0  0  0  0
   12.1175  -14.5085    0.0000 C   0  0  0  0  0  0  0  0  0  0  0  0
   12.5595  -15.2079    0.0000 C   0  0  0  0  0  0  0  0  0  0  0  0
   14.0996  -17.7800    0.0000 C   0  0  0  0  0  0  0  0  0  0  0  0
   13.3838  -18.1824    0.0000 C   0  0  0  0  0  0  0  0  0  0  0  0
   13.3721  -19.0074    0.0000 C   0  0  0  0  0  0  0  0  0  0  0  0
   14.0824  -19.4283    0.0000 C   0  0  0  0  0  0  0  0  0  0  0  0
   14.8044  -19.0244    0.0000 C   0  0  0  0  0  0  0  0  0  0  0  0
   18.9675  -18.6653    0.0000 O   0  0  0  0  0  0  0  0  0  0  0  0
   12.6527  -19.4105    0.0000 O   0  0  0  0  0  0  0  0  0  0  0  0
   12.0590  -13.0799    0.0000 O   0  0  0  0  0  0  0  0  0  0  0  0
  2  8  2  0
  1  2  1  0
  1  9  1  0
  2  3  1  0
 11 20  1  0
 16 17  1  0
 17 18  1  0
 18 19  1  0
 19 20  1  0
 13 21  1  0
  4 10  1  0
  1  4  2  0
 10 11  1  0
  5  6  2  0
  3 12  1  0
 13 25  1  0
 21 22  1  0
 22 23  1  0
 23 24  1  0
 24 25  1  0
 15 26  1  0
  6  7  1  0
 12 13  1  0
  7  3  2  0
  6 14  1  0
  4  5  1  0
 15 30  1  0
 26 27  1  0
 27 28  1  0
 28 29  1  0
 29 30  1  0
 14 15  1  0
 18 31  1  0
 11 16  1  0
 28 32  1  0
 23 33  1  0
M  END
> <chembl_id>
CHEMBL1254679

> <chembl_pref_name>
None

$$$$
CHEMBL602213
     RDKit          2D

 26 29  0  0  0  0  0  0  0  0999 V2000
   -7.4573    1.8682    0.0000 C   0  0  0  0  0  0  0  0  0  0  0  0
   -6.2640    1.9946    0.0000 C   0  0  0  0  0  0  0  0  0  0  0  0
   -5.5150    3.2942    0.0000 C   0  0  0  0  0  0  0  0  0  0  0  0
   -4.0476    2.9835    0.0000 C   0  0  0  0  0  0  0  0  0  0  0  0
   -3.9086    1.5029    0.0000 C   0  0  0  0  0  0  0  0  0  0  0  0
   -5.2594    0.8807    0.0000 O   0  0  0  0  0  0  0  0  0  0  0  0
   -2.6111    0.7486    0.0000 C   0  0  0  0  0  0  0  0  0  0  0  0
   -2.6111   -0.7486    0.0000 C   0  0  0  0  0  0  0  0  0  0  0  0
   -1.2964   -1.4973    0.0000 C   0  0  0  0  0  0  0  0  0  0  0  0
   -1.2928   -2.6973    0.0000 O   0  0  0  0  0  0  0  0  0  0  0  0
    0.0000   -0.7486    0.0000 N   0  0  0  0  0  0  0  0  0  0  0  0
    1.2964   -1.4973    0.0000 C   0  0  0  0  0  0  0  0  0  0  0  0
    2.5929   -0.7486    0.0000 N   0  0  0  0  0  0  0  0  0  0  0  0
    2.5929    0.7486    0.0000 C   0  0  0  0  0  0  0  0  0  0  0  0
    1.2964    1.4973    0.0000 S   0  0  0  0  0  0  0  0  0  0  0  0
    0.0000    0.7486    0.0000 C   0  0  0  0  0  0  0  0  0  0  0  0
   -1.2964    1.4973    0.0000 C   0  0  0  0  0  0  0  0  0  0  0  0
   -1.2876    2.9981    0.0000 C   0  0  0  0  0  0  0  0  0  0  0  0
   -1.2805    4.1981    0.0000 N   0  0  0  0  0  0  0  0  0  0  0  0
    3.8926   -1.4990    0.0000 C   0  0  0  0  0  0  0  0  0  0  0  0
    5.1929   -0.7510    0.0000 C   0  0  0  0  0  0  0  0  0  0  0  0
    6.4908   -1.5029    0.0000 C   0  0  0  0  0  0  0  0  0  0  0  0
    6.4885   -3.0029    0.0000 C   0  0  0  0  0  0  0  0  0  0  0  0
    7.5268   -3.6045    0.0000 Br  0  0  0  0  0  0  0  0  0  0  0  0
    5.1883   -3.7510    0.0000 C   0  0  0  0  0  0  0  0  0  0  0  0
    3.8904   -2.9990    0.0000 C   0  0  0  0  0  0  0  0  0  0  0  0
  1  2  1  0
  2  3  2  0
  3  4  1  0
  4  5  2  0
  5  6  1  0
  6  2  1  0
  5  7  1  0
  7  8  1  0
  8  9  1  0
  9 10  2  0
  9 11  1  0
 11 12  1  0
 12 13  1  0
 13 14  1  0
 14 15  1  0
 15 16  1  0
 16 11  1  0
 16 17  2  0
 17  7  1  0
 17 18  1  0
 18 19  3  0
 13 20  1  0
 20 21  2  0
 21 22  1  0
 22 23  2  0
 23 24  1  0
 23 25  1  0
 25 26  2  0
 26 20  1  0
M  END
> <chembl_id>
CHEMBL602213

> <chembl_pref_name>
None

$$$$
CHEMBL4077120
     RDKit          2D

 36 38  0  0  0  0  0  0  0  0999 V2000
   11.5604   -4.1190    0.0000 O   0  0  0  0  0  0  0  0  0  0  0  0
   11.1559   -3.4132    0.0000 S   0  0  0  0  0  0  0  0  0  0  0  0
   10.7469   -4.1164    0.0000 O   0  0  0  0  0  0  0  0  0  0  0  0
    3.6732   -3.5123    0.0000 O   0  0  0  0  0  0  0  0  0  0  0  0
    4.0860   -4.2222    0.0000 S   0  0  0  0  0  0  0  0  0  0  0  0
    4.4944   -3.5098    0.0000 O   0  0  0  0  0  0  0  0  0  0  0  0
    6.9172   -3.4050    0.0000 C   0  0  0  0  0  0  0  0  0  0  0  0
    6.9172   -4.2222    0.0000 N   0  0  0  0  0  0  0  0  0  0  0  0
    7.6225   -4.6266    0.0000 C   0  0  0  0  0  0  0  0  0  0  0  0
    8.3278   -4.2222    0.0000 C   0  0  0  0  0  0  0  0  0  0  0  0
    8.3278   -3.4050    0.0000 N   0  0  0  0  0  0  0  0  0  0  0  0
    7.6225   -2.9922    0.0000 C   0  0  0  0  0  0  0  0  0  0  0  0
    9.0367   -2.9984    0.0000 C   0  0  0  0  0  0  0  0  0  0  0  0
    9.7432   -3.4091    0.0000 C   0  0  0  0  0  0  0  0  0  0  0  0
   10.4521   -3.0026    0.0000 N   0  0  0  0  0  0  0  0  0  0  0  0
    6.2101   -4.6318    0.0000 C   0  0  0  0  0  0  0  0  0  0  0  0
    5.5018   -4.2242    0.0000 C   0  0  0  0  0  0  0  0  0  0  0  0
    4.7947   -4.6338    0.0000 N   0  0  0  0  0  0  0  0  0  0  0  0
    3.3793   -4.6359    0.0000 C   0  0  0  0  0  0  0  0  0  0  0  0
    2.6719   -4.2267    0.0000 C   0  0  0  0  0  0  0  0  0  0  0  0
    1.9652   -4.6356    0.0000 C   0  0  0  0  0  0  0  0  0  0  0  0
    1.9660   -5.4537    0.0000 C   0  0  0  0  0  0  0  0  0  0  0  0
    2.6792   -5.8611    0.0000 C   0  0  0  0  0  0  0  0  0  0  0  0
    3.3830   -5.4498    0.0000 C   0  0  0  0  0  0  0  0  0  0  0  0
   11.8675   -3.0067    0.0000 C   0  0  0  0  0  0  0  0  0  0  0  0
   12.5709   -3.4208    0.0000 C   0  0  0  0  0  0  0  0  0  0  0  0
   13.2793   -3.0149    0.0000 C   0  0  0  0  0  0  0  0  0  0  0  0
   13.2821   -2.1969    0.0000 C   0  0  0  0  0  0  0  0  0  0  0  0
   12.5706   -1.7863    0.0000 C   0  0  0  0  0  0  0  0  0  0  0  0
   11.8651   -2.1945    0.0000 C   0  0  0  0  0  0  0  0  0  0  0  0
    1.2554   -5.8604    0.0000 N   0  0  0  0  0  0  0  0  0  0  0  0
    1.2577   -6.6776    0.0000 O   0  0  0  0  0  0  0  0  0  0  0  0
    0.5466   -5.4538    0.0000 O   0  0  0  0  0  0  0  0  0  0  0  0
   13.9885   -1.7858    0.0000 N   0  0  0  0  0  0  0  0  0  0  0  0
   13.9898   -0.9686    0.0000 O   0  0  0  0  0  0  0  0  0  0  0  0
   14.6955   -2.1955    0.0000 O   0  0  0  0  0  0  0  0  0  0  0  0
  2  1  2  0
  3  2  2  0
  5  4  2  0
  6  5  2  0
  7  8  1  0
  7 12  1  0
  8  9  1  0
  9 10  1  0
 10 11  1  0
 11 12  1  0
 11 13  1  0
 13 14  1  0
 14 15  1  0
  8 16  1  0
 16 17  1  0
 17 18  1  0
 18  5  1  0
  5 19  1  0
 19 20  2  0
 20 21  1  0
 21 22  2  0
 22 23  1  0
 23 24  2  0
 24 19  1  0
 15  2  1  0
  2 25  1  0
 25 26  2  0
 26 27  1  0
 27 28  2  0
 28 29  1  0
 29 30  2  0
 30 25  1  0
 31 32  2  0
 31 33  1  0
 22 31  1  0
 34 35  2  0
 34 36  1  0
 28 34  1  0
M  CHG  4  31   1  33  -1  34   1  36  -1
M  END
> <chembl_id>
CHEMBL4077120

> <chembl_pref_name>
None

$$$$
CHEMBL3415713
     RDKit          2D

 24 27  0  0  0  0  0  0  0  0999 V2000
    7.0793   -0.1764    0.0000 C   0  0  0  0  0  0  0  0  0  0  0  0
   -1.0028   -1.5132    0.0000 C   0  0  0  0  0  0  0  0  0  0  0  0
    6.4184    1.1701    0.0000 C   0  0  0  0  0  0  0  0  0  0  0  0
    1.7138   -1.2033    0.0000 C   0  0  0  0  0  0  0  0  0  0  0  0
    5.5886    4.6654    0.0000 C   0  0  0  0  0  0  0  0  0  0  0  0
   -2.3155    0.7475    0.0000 C   0  0  0  0  0  0  0  0  0  0  0  0
    6.2436   -1.4221    0.0000 C   0  0  0  0  0  0  0  0  0  0  0  0
    6.5873    3.5462    0.0000 C   0  0  0  0  0  0  0  0  0  0  0  0
    2.1812    2.6271    0.0000 C   0  0  0  0  0  0  0  0  0  0  0  0
    4.9218    1.2711    0.0000 C   0  0  0  0  0  0  0  0  0  0  0  0
   -2.3155   -0.7475    0.0000 C   0  0  0  0  0  0  0  0  0  0  0  0
    4.0896    0.0290    0.0000 C   0  0  0  0  0  0  0  0  0  0  0  0
    4.7470   -1.3211    0.0000 C   0  0  0  0  0  0  0  0  0  0  0  0
    2.5889    0.0182    0.0000 C   0  0  0  0  0  0  0  0  0  0  0  0
    6.1174    2.1217    0.0000 C   0  0  0  0  0  0  0  0  0  0  0  0
    0.2917   -0.7475    0.0000 C   0  0  0  0  0  0  0  0  0  0  0  0
    1.7138    1.2033    0.0000 N   0  0  0  0  0  0  0  0  0  0  0  0
    4.6488    1.8163    0.0000 C   0  0  0  0  0  0  0  0  0  0  0  0
    3.6500    2.9355    0.0000 C   0  0  0  0  0  0  0  0  0  0  0  0
   -1.0028    1.5132    0.0000 C   0  0  0  0  0  0  0  0  0  0  0  0
    4.1200    4.3600    0.0000 C   0  0  0  0  0  0  0  0  0  0  0  0
    0.2917    0.7475    0.0000 C   0  0  0  0  0  0  0  0  0  0  0  0
    8.5765   -0.2805    0.0000 O   0  0  0  0  0  0  0  0  0  0  0  0
    9.1037   -1.3585    0.0000 C   0  0  0  0  0  0  0  0  0  0  0  0
  6 20  1  0
  8  5  1  0
  9 19  1  0
  3 10  2  0
  5 21  2  0
 14 12  1  0
 11  6  1  0
 21 19  1  0
 18 15  1  0
 10 12  1  0
 17 14  1  0
 15  8  2  0
 12 13  2  0
 11  2  1  0
 16  2  1  0
 17  9  1  0
  1  3  1  0
 20 22  1  0
  7  1  2  0
 13  7  1  0
 14  4  2  0
 16 22  2  0
 19 18  2  0
 22 17  1  0
  4 16  1  0
  1 23  1  0
 23 24  1  0
M  END
> <chembl_id>
CHEMBL3415713

> <chembl_pref_name>
None

$$$$
CHEMBL4460953
     RDKit          2D

 26 29  0  0  0  0  0  0  0  0999 V2000
   31.7454  -23.0280    0.0000 S   0  0  0  0  0  0  0  0  0  0  0  0
   32.2442  -22.3806    0.0000 C   0  0  0  0  0  0  0  0  0  0  0  0
   31.7800  -21.7050    0.0000 N   0  0  0  0  0  0  0  0  0  0  0  0
   30.9750  -22.7554    0.0000 C   0  0  0  0  0  0  0  0  0  0  0  0
   30.9982  -21.9408    0.0000 C   0  0  0  0  0  0  0  0  0  0  0  0
   30.3054  -21.5152    0.0000 C   0  0  0  0  0  0  0  0  0  0  0  0
   29.5890  -21.9031    0.0000 C   0  0  0  0  0  0  0  0  0  0  0  0
   29.5696  -22.7209    0.0000 N   0  0  0  0  0  0  0  0  0  0  0  0
   30.2631  -23.1429    0.0000 C   0  0  0  0  0  0  0  0  0  0  0  0
   33.0580  -22.4042    0.0000 C   0  0  0  0  0  0  0  0  0  0  0  0
   33.4465  -23.1244    0.0000 C   0  0  0  0  0  0  0  0  0  0  0  0
   34.2626  -23.1470    0.0000 C   0  0  0  0  0  0  0  0  0  0  0  0
   34.6912  -22.4502    0.0000 C   0  0  0  0  0  0  0  0  0  0  0  0
   34.2977  -21.7292    0.0000 N   0  0  0  0  0  0  0  0  0  0  0  0
   33.4828  -21.7101    0.0000 C   0  0  0  0  0  0  0  0  0  0  0  0
   33.0917  -20.9926    0.0000 O   0  0  0  0  0  0  0  0  0  0  0  0
   33.5175  -20.2951    0.0000 C   0  0  0  0  0  0  0  0  0  0  0  0
   34.3339  -20.3181    0.0000 C   0  0  0  0  0  0  0  0  0  0  0  0
   34.7596  -19.6215    0.0000 C   0  0  0  0  0  0  0  0  0  0  0  0
   34.3685  -18.9030    0.0000 C   0  0  0  0  0  0  0  0  0  0  0  0
   33.5472  -18.8855    0.0000 C   0  0  0  0  0  0  0  0  0  0  0  0
   33.1252  -19.5828    0.0000 C   0  0  0  0  0  0  0  0  0  0  0  0
   34.7934  -18.2049    0.0000 N   0  0  0  0  0  0  0  0  0  0  0  0
   35.6103  -18.2239    0.0000 C   0  0  0  0  0  0  0  0  0  0  0  0
   36.0352  -17.5258    0.0000 O   0  0  0  0  0  0  0  0  0  0  0  0
   36.0024  -18.9409    0.0000 C   0  0  0  0  0  0  0  0  0  0  0  0
  4  1  1  0
  1  2  1  0
  2  3  2  0
  3  5  1  0
  4  5  2  0
  5  6  1  0
  6  7  2  0
  7  8  1  0
  8  9  2  0
  9  4  1  0
 10 11  2  0
 11 12  1  0
 12 13  2  0
 13 14  1  0
 14 15  2  0
 15 10  1  0
  2 10  1  0
 15 16  1  0
 16 17  1  0
 17 18  2  0
 18 19  1  0
 19 20  2  0
 20 21  1  0
 21 22  2  0
 22 17  1  0
 20 23  1  0
 23 24  1  0
 24 25  2  0
 24 26  1  0
M  END
> <chembl_id>
CHEMBL4460953

> <chembl_pref_name>
None

$$$$
CHEMBL177820
     RDKit          2D

 13 14  0  0  0  0  0  0  0  0999 V2000
    1.4004    0.4137    0.0000 C   0  0  0  0  0  0  0  0  0  0  0  0
    1.4004   -0.4113    0.0000 C   0  0  0  0  0  0  0  0  0  0  0  0
    0.6859   -0.8238    0.0000 C   0  0  0  0  0  0  0  0  0  0  0  0
    0.6859    0.8262    0.0000 C   0  0  0  0  0  0  0  0  0  0  0  0
   -0.8132    0.6686    0.0000 N   0  0  0  0  0  0  0  0  0  0  0  0
   -0.0285    0.4137    0.0000 C   0  0  0  0  0  0  0  0  0  0  0  0
   -0.0285   -0.4113    0.0000 C   0  0  0  0  0  0  0  0  0  0  0  0
   -0.8132   -0.6662    0.0000 N   0  0  0  0  0  0  0  0  0  0  0  0
   -1.2981    0.0012    0.0000 N   0  0  0  0  0  0  0  0  0  0  0  0
    0.6859    1.6512    0.0000 Br  0  0  0  0  0  0  0  0  0  0  0  0
    2.1149    0.8262    0.0000 Br  0  0  0  0  0  0  0  0  0  0  0  0
    2.1149   -0.8238    0.0000 Br  0  0  0  0  0  0  0  0  0  0  0  0
    0.6859   -1.6488    0.0000 Br  0  0  0  0  0  0  0  0  0  0  0  0
  1  2  2  0
  1  4  1  0
 11  1  1  0
  2  3  1  0
 12  2  1  0
  3  7  2  0
 13  3  1  0
  4  6  2  0
 10  4  1  0
  6  5  1  0
  5  9  1  0
  6  7  1  0
  7  8  1  0
  8  9  2  0
M  END
> <chembl_id>
CHEMBL177820

> <chembl_pref_name>
TETRABROMOBENZOTRIAZOLE

$$$$
CHEMBL501515
     RDKit          2D

 84 91  0  0  0  0  0  0  0  0999 V2000
   14.7618  -16.8110    0.0000 O   0  0  0  0  0  0  0  0  0  0  0  0
   12.5642  -18.8151    0.0000 O   0  0  0  0  0  0  0  0  0  0  0  0
   12.5817  -17.9903    0.0000 C   0  0  0  0  0  0  0  0  0  0  0  0
   13.3067  -17.5961    0.0000 O   0  0  0  0  0  0  0  0  0  0  0  0
   13.3260  -16.7750    0.0000 C   0  0  0  0  0  0  0  0  0  0  0  0
   12.6224  -16.3436    0.0000 C   0  0  0  0  0  0  0  0  0  0  0  0
   11.8975  -16.7396    0.0000 C   0  0  0  0  0  0  0  0  0  0  0  0
   11.8764  -17.5670    0.0000 C   0  0  0  0  0  0  0  0  0  0  0  0
   11.1533  -17.9642    0.0000 O   0  0  0  0  0  0  0  0  0  0  0  0
   11.1934  -16.3097    0.0000 O   0  0  0  0  0  0  0  0  0  0  0  0
   12.6430  -15.5189    0.0000 O   0  0  0  0  0  0  0  0  0  0  0  0
   14.0506  -16.3804    0.0000 C   0  0  0  0  0  0  0  0  0  0  0  0
    8.9917  -21.3250    0.0000 C   0  0  0  0  0  0  0  0  0  0  0  0
    8.9917  -22.1500    0.0000 C   0  0  0  0  0  0  0  0  0  0  0  0
    9.7037  -22.5583    0.0000 C   0  0  0  0  0  0  0  0  0  0  0  0
    9.7037  -20.9083    0.0000 C   0  0  0  0  0  0  0  0  0  0  0  0
   10.4157  -21.3250    0.0000 C   0  0  0  0  0  0  0  0  0  0  0  0
   10.4122  -22.1500    0.0000 C   0  0  0  0  0  0  0  0  0  0  0  0
   11.1210  -22.5632    0.0000 C   0  0  0  0  0  0  0  0  0  0  0  0
   11.8378  -22.1560    0.0000 C   0  0  0  0  0  0  0  0  0  0  0  0
   11.1280  -20.9132    0.0000 C   0  0  0  0  0  0  0  0  0  0  0  0
   11.8413  -21.3359    0.0000 C   0  0  0  0  0  0  0  0  0  0  0  0
   11.8583  -19.6806    0.0000 C   0  0  0  0  0  0  0  0  0  0  0  0
   11.1334  -20.0864    0.0000 C   0  0  0  0  0  0  0  0  0  0  0  0
    9.2833  -23.2708    0.0000 C   0  0  0  0  0  0  0  0  0  0  0  0
   10.1083  -23.2708    0.0000 C   0  0  0  0  0  0  0  0  0  0  0  0
    8.2778  -22.5635    0.0000 O   0  0  0  0  0  0  0  0  0  0  0  0
   10.4083  -20.5000    0.0000 C   0  0  0  0  0  0  0  0  0  0  0  0
   11.8333  -20.5083    0.0000 C   0  0  0  0  0  0  0  0  0  0  0  0
   12.5500  -21.7583    0.0000 C   0  0  0  0  0  0  0  0  0  0  0  0
   12.5753  -20.1024    0.0000 C   0  0  0  0  0  0  0  0  0  0  0  0
   12.5581  -20.9335    0.0000 C   0  0  0  0  0  0  0  0  0  0  0  0
   13.3433  -21.2066    0.0000 C   0  0  0  0  0  0  0  0  0  0  0  0
   13.8457  -20.5443    0.0000 C   0  0  0  0  0  0  0  0  0  0  0  0
   13.3710  -19.8619    0.0000 C   0  0  0  0  0  0  0  0  0  0  0  0
   13.3667  -19.0333    0.0000 C   0  0  0  0  0  0  0  0  0  0  0  0
   14.0790  -18.6171    0.0000 C   0  0  0  0  0  0  0  0  0  0  0  0
   14.7956  -19.0258    0.0000 C   0  0  0  0  0  0  0  0  0  0  0  0
   15.5079  -18.6096    0.0000 C   0  0  0  0  0  0  0  0  0  0  0  0
   16.2245  -19.0183    0.0000 C   0  0  0  0  0  0  0  0  0  0  0  0
   16.9368  -18.6021    0.0000 C   0  0  0  0  0  0  0  0  0  0  0  0
   16.2288  -19.8433    0.0000 C   0  0  0  0  0  0  0  0  0  0  0  0
   11.8672  -18.8556    0.0000 O   0  0  0  0  0  0  0  0  0  0  0  0
   13.4000  -18.2333    0.0000 C   0  0  0  0  0  0  0  0  0  0  0  0
   11.8625  -18.3958    0.0000 H   0  0  0  0  0  0  0  0  0  0  0  0
    7.5627  -22.1521    0.0000 C   0  0  0  0  0  0  0  0  0  0  0  0
    7.5638  -21.3284    0.0000 O   0  0  0  0  0  0  0  0  0  0  0  0
    6.8528  -20.9170    0.0000 C   0  0  0  0  0  0  0  0  0  0  0  0
    6.1365  -21.3270    0.0000 C   0  0  0  0  0  0  0  0  0  0  0  0
    6.1357  -22.1530    0.0000 C   0  0  0  0  0  0  0  0  0  0  0  0
    6.8512  -22.5689    0.0000 C   0  0  0  0  0  0  0  0  0  0  0  0
    6.8526  -23.3939    0.0000 O   0  0  0  0  0  0  0  0  0  0  0  0
    5.4204  -22.5641    0.0000 O   0  0  0  0  0  0  0  0  0  0  0  0
    5.4230  -20.9129    0.0000 O   0  0  0  0  0  0  0  0  0  0  0  0
    6.8547  -20.0920    0.0000 C   0  0  0  0  0  0  0  0  0  0  0  0
    7.5701  -19.6812    0.0000 O   0  0  0  0  0  0  0  0  0  0  0  0
    6.1389  -23.8077    0.0000 C   0  0  0  0  0  0  0  0  0  0  0  0
    5.4279  -23.3948    0.0000 O   0  0  0  0  0  0  0  0  0  0  0  0
    4.7163  -23.8050    0.0000 C   0  0  0  0  0  0  0  0  0  0  0  0
    4.7134  -24.6304    0.0000 C   0  0  0  0  0  0  0  0  0  0  0  0
    5.4284  -25.0438    0.0000 C   0  0  0  0  0  0  0  0  0  0  0  0
    6.1463  -24.6320    0.0000 C   0  0  0  0  0  0  0  0  0  0  0  0
    6.8621  -25.0422    0.0000 O   0  0  0  0  0  0  0  0  0  0  0  0
    5.4270  -25.8688    0.0000 O   0  0  0  0  0  0  0  0  0  0  0  0
    3.9981  -25.0414    0.0000 O   0  0  0  0  0  0  0  0  0  0  0  0
    4.0027  -23.3910    0.0000 C   0  0  0  0  0  0  0  0  0  0  0  0
    4.0044  -22.5660    0.0000 O   0  0  0  0  0  0  0  0  0  0  0  0
    7.5583  -22.9750    0.0000 H   0  0  0  0  0  0  0  0  0  0  0  0
    6.8500  -24.2167    0.0000 H   0  0  0  0  0  0  0  0  0  0  0  0
   15.4847  -16.4135    0.0000 C   0  0  0  0  0  0  0  0  0  0  0  0
   16.1886  -16.8437    0.0000 O   0  0  0  0  0  0  0  0  0  0  0  0
   16.9093  -16.4496    0.0000 C   0  0  0  0  0  0  0  0  0  0  0  0
   16.9307  -15.6245    0.0000 C   0  0  0  0  0  0  0  0  0  0  0  0
   16.2251  -15.1950    0.0000 C   0  0  0  0  0  0  0  0  0  0  0  0
   15.4982  -15.5907    0.0000 C   0  0  0  0  0  0  0  0  0  0  0  0
   14.7924  -15.1634    0.0000 O   0  0  0  0  0  0  0  0  0  0  0  0
   16.2451  -14.3703    0.0000 O   0  0  0  0  0  0  0  0  0  0  0  0
   17.6551  -15.2296    0.0000 O   0  0  0  0  0  0  0  0  0  0  0  0
   17.6134  -16.8795    0.0000 C   0  0  0  0  0  0  0  0  0  0  0  0
   17.5931  -17.7042    0.0000 O   0  0  0  0  0  0  0  0  0  0  0  0
   10.4042  -22.9708    0.0000 H   0  0  0  0  0  0  0  0  0  0  0  0
   11.1208  -21.7375    0.0000 H   0  0  0  0  0  0  0  0  0  0  0  0
   12.5708  -19.2750    0.0000 H   0  0  0  0  0  0  0  0  0  0  0  0
   14.1104  -19.6145    0.0000 H   0  0  0  0  0  0  0  0  0  0  0  0
 18 19  1  0
 40 41  1  0
 19 20  1  0
 40 42  1  0
 20 22  1  0
 23 43  1  1
 21 22  1  0
 36 44  1  6
 36  2  1  0
  3  2  1  0
  3 45  1  6
  6 11  1  6
 27 46  1  0
 46 47  1  0
  3  8  1  0
  5 12  1  1
 21 24  1  0
 22 32  1  0
 31 23  1  0
 46 51  1  0
 47 48  1  0
 48 49  1  0
 49 50  1  0
 50 51  1  0
 23 24  1  0
 51 52  1  6
 12  1  1  0
 50 53  1  1
 15 25  1  0
 49 54  1  6
 13 14  1  0
 48 55  1  1
 15 26  1  0
 55 56  1  0
  4  5  1  0
 52 57  1  0
 57 58  1  0
 14 27  1  1
  5  6  1  0
 17 28  1  1
  6  7  1  0
 22 29  1  1
 57 62  1  0
 58 59  1  0
 59 60  1  0
 60 61  1  0
 61 62  1  0
  7  8  1  0
 62 63  1  6
 32 30  1  6
 61 64  1  1
 31 32  1  0
 60 65  1  6
 13 16  1  0
 59 66  1  1
 14 15  1  0
 66 67  1  0
 15 18  1  0
 46 68  1  6
 17 16  1  0
 57 69  1  6
 17 18  1  0
 70  1  1  1
 70 71  1  0
 32 33  1  0
 33 34  1  0
 34 35  1  0
 35 31  1  0
  3  4  1  0
 70 75  1  0
 71 72  1  0
 72 73  1  0
 73 74  1  0
 74 75  1  0
 35 36  1  0
 75 76  1  6
  8  9  1  6
 74 77  1  1
 36 37  1  0
 73 78  1  6
 72 79  1  1
 37 38  1  0
 79 80  1  0
  7 10  1  1
 18 81  1  6
 38 39  1  0
 21 82  1  6
 17 21  1  0
 31 83  1  1
 39 40  2  0
 35 84  1  6
M  END
> <chembl_id>
CHEMBL501515

> <chembl_pref_name>
GINSENOSIDE RB1

$$$$
CHEMBL301283
     RDKit          2D

 17 18  0  0  0  0  0  0  0  0999 V2000
    0.7917   -4.7125    0.0000 N   0  0  0  0  0  0  0  0  0  0  0  0
    1.3167   -4.4125    0.0000 C   0  0  0  0  0  0  0  0  0  0  0  0
    0.2792   -4.4125    0.0000 C   0  0  0  0  0  0  0  0  0  0  0  0
    0.2792   -3.8125    0.0000 N   0  0  0  0  0  0  0  0  0  0  0  0
    1.3167   -3.8042    0.0000 C   0  0  0  0  0  0  0  0  0  0  0  0
    0.7917   -3.5042    0.0000 C   0  0  0  0  0  0  0  0  0  0  0  0
    1.8375   -4.7125    0.0000 N   0  0  0  0  0  0  0  0  0  0  0  0
    2.3542   -4.4042    0.0000 C   0  0  0  0  0  0  0  0  0  0  0  0
    2.8750   -4.7042    0.0000 C   0  0  0  0  0  0  0  0  0  0  0  0
    2.3500   -3.8125    0.0000 C   0  0  0  0  0  0  0  0  0  0  0  0
    2.8667   -3.5042    0.0000 C   0  0  0  0  0  0  0  0  0  0  0  0
    3.3917   -4.4042    0.0000 C   0  0  0  0  0  0  0  0  0  0  0  0
    0.7917   -2.9042    0.0000 O   0  0  0  0  0  0  0  0  0  0  0  0
    3.3917   -3.8042    0.0000 C   0  0  0  0  0  0  0  0  0  0  0  0
   -0.2458   -4.7125    0.0000 N   0  0  0  0  0  0  0  0  0  0  0  0
    2.8625   -2.9042    0.0000 Cl  0  0  0  0  0  0  0  0  0  0  0  0
    3.9125   -4.7042    0.0000 Cl  0  0  0  0  0  0  0  0  0  0  0  0
  2  1  2  0
  3  1  1  0
  4  3  2  0
  5  2  1  0
  6  4  1  0
  7  2  1  0
  8  7  1  0
  9  8  2  0
 10  8  1  0
 11 10  2  0
 12  9  1  0
 13  6  1  0
 14 11  1  0
 15  3  1  0
 16 11  1  0
 17 12  1  0
  6  5  2  0
 14 12  2  0
M  END
> <chembl_id>
CHEMBL301283

> <chembl_pref_name>
None

$$$$
CHEMBL4102345
     RDKit          2D

 35 37  0  0  0  0  0  0  0  0999 V2000
   24.6643  -13.3598    0.0000 O   0  0  0  0  0  0  0  0  0  0  0  0
   24.2598  -12.6541    0.0000 S   0  0  0  0  0  0  0  0  0  0  0  0
   23.8509  -13.3572    0.0000 O   0  0  0  0  0  0  0  0  0  0  0  0
   15.3657  -10.2933    0.0000 O   0  0  0  0  0  0  0  0  0  0  0  0
   15.7784  -11.0032    0.0000 S   0  0  0  0  0  0  0  0  0  0  0  0
   16.1868  -10.2908    0.0000 O   0  0  0  0  0  0  0  0  0  0  0  0
   17.9039  -11.4159    0.0000 C   0  0  0  0  0  0  0  0  0  0  0  0
   18.6116  -11.0073    0.0000 C   0  0  0  0  0  0  0  0  0  0  0  0
   19.3193  -11.4159    0.0000 N   0  0  0  0  0  0  0  0  0  0  0  0
   17.1962  -11.0073    0.0000 C   0  0  0  0  0  0  0  0  0  0  0  0
   16.4885  -11.4159    0.0000 N   0  0  0  0  0  0  0  0  0  0  0  0
   15.0731  -11.4159    0.0000 C   0  0  0  0  0  0  0  0  0  0  0  0
   14.3661  -11.0040    0.0000 C   0  0  0  0  0  0  0  0  0  0  0  0
   13.6588  -11.4119    0.0000 C   0  0  0  0  0  0  0  0  0  0  0  0
   13.6584  -12.2300    0.0000 C   0  0  0  0  0  0  0  0  0  0  0  0
   14.3711  -12.6384    0.0000 C   0  0  0  0  0  0  0  0  0  0  0  0
   15.0754  -12.2282    0.0000 C   0  0  0  0  0  0  0  0  0  0  0  0
   19.3131  -12.2295    0.0000 C   0  0  0  0  0  0  0  0  0  0  0  0
   20.0167  -12.6380    0.0000 C   0  0  0  0  0  0  0  0  0  0  0  0
   20.7269  -12.2329    0.0000 N   0  0  0  0  0  0  0  0  0  0  0  0
   20.7288  -11.4148    0.0000 C   0  0  0  0  0  0  0  0  0  0  0  0
   20.0207  -11.0017    0.0000 C   0  0  0  0  0  0  0  0  0  0  0  0
   21.4330  -12.6442    0.0000 C   0  0  0  0  0  0  0  0  0  0  0  0
   21.4299  -13.4614    0.0000 O   0  0  0  0  0  0  0  0  0  0  0  0
   22.1423  -12.2383    0.0000 C   0  0  0  0  0  0  0  0  0  0  0  0
   22.8484  -12.6495    0.0000 C   0  0  0  0  0  0  0  0  0  0  0  0
   23.5577  -12.2436    0.0000 N   0  0  0  0  0  0  0  0  0  0  0  0
   24.9731  -12.2490    0.0000 C   0  0  0  0  0  0  0  0  0  0  0  0
   25.6762  -12.6607    0.0000 C   0  0  0  0  0  0  0  0  0  0  0  0
   26.3849  -12.2555    0.0000 C   0  0  0  0  0  0  0  0  0  0  0  0
   26.3885  -11.4374    0.0000 C   0  0  0  0  0  0  0  0  0  0  0  0
   25.6773  -11.0263    0.0000 C   0  0  0  0  0  0  0  0  0  0  0  0
   24.9715  -11.4339    0.0000 C   0  0  0  0  0  0  0  0  0  0  0  0
   12.9512  -12.6395    0.0000 Cl  0  0  0  0  0  0  0  0  0  0  0  0
   27.0972  -11.0306    0.0000 Cl  0  0  0  0  0  0  0  0  0  0  0  0
  2  1  2  0
  3  2  2  0
  5  4  2  0
  6  5  2  0
  7  8  1  0
  8  9  1  0
  7 10  1  0
 10 11  1  0
 11  5  1  0
  5 12  1  0
 12 13  2  0
 13 14  1  0
 14 15  2  0
 15 16  1  0
 16 17  2  0
 17 12  1  0
  9 18  1  0
  9 22  1  0
 18 19  1  0
 19 20  1  0
 20 21  1  0
 21 22  1  0
 20 23  1  0
 23 24  2  0
 23 25  1  0
 25 26  1  0
 26 27  1  0
 27  2  1  0
  2 28  1  0
 28 29  2  0
 29 30  1  0
 30 31  2  0
 31 32  1  0
 32 33  2  0
 33 28  1  0
 15 34  1  0
 31 35  1  0
M  END
> <chembl_id>
CHEMBL4102345

> <chembl_pref_name>
None

$$$$
CHEMBL4087856
     RDKit          2D

 40 42  0  0  0  0  0  0  0  0999 V2000
   21.2016  -10.2562    0.0000 O   0  0  0  0  0  0  0  0  0  0  0  0
   20.7971   -9.5504    0.0000 S   0  0  0  0  0  0  0  0  0  0  0  0
   20.3881  -10.2536    0.0000 O   0  0  0  0  0  0  0  0  0  0  0  0
   28.8741   -7.2103    0.0000 O   0  0  0  0  0  0  0  0  0  0  0  0
   29.2868   -7.9202    0.0000 S   0  0  0  0  0  0  0  0  0  0  0  0
   29.6952   -7.2078    0.0000 O   0  0  0  0  0  0  0  0  0  0  0  0
   24.3383   -8.3205    0.0000 C   0  0  0  0  0  0  0  0  0  0  0  0
   24.3383   -9.1377    0.0000 N   0  0  0  0  0  0  0  0  0  0  0  0
   25.0435   -9.5422    0.0000 C   0  0  0  0  0  0  0  0  0  0  0  0
   25.7488   -9.1377    0.0000 C   0  0  0  0  0  0  0  0  0  0  0  0
   25.7488   -8.3205    0.0000 N   0  0  0  0  0  0  0  0  0  0  0  0
   25.0435   -7.9078    0.0000 C   0  0  0  0  0  0  0  0  0  0  0  0
   26.4577   -7.9140    0.0000 C   0  0  0  0  0  0  0  0  0  0  0  0
   27.1642   -8.3246    0.0000 C   0  0  0  0  0  0  0  0  0  0  0  0
   27.8731   -7.9181    0.0000 C   0  0  0  0  0  0  0  0  0  0  0  0
   28.5796   -8.3288    0.0000 N   0  0  0  0  0  0  0  0  0  0  0  0
   29.9951   -8.3329    0.0000 C   0  0  0  0  0  0  0  0  0  0  0  0
   29.9874   -9.1511    0.0000 C   0  0  0  0  0  0  0  0  0  0  0  0
   30.6931   -9.5617    0.0000 C   0  0  0  0  0  0  0  0  0  0  0  0
   31.4030   -9.1551    0.0000 C   0  0  0  0  0  0  0  0  0  0  0  0
   31.4028   -8.3337    0.0000 C   0  0  0  0  0  0  0  0  0  0  0  0
   30.6965   -7.9268    0.0000 C   0  0  0  0  0  0  0  0  0  0  0  0
   23.6312   -9.5473    0.0000 C   0  0  0  0  0  0  0  0  0  0  0  0
   22.9229   -9.1397    0.0000 C   0  0  0  0  0  0  0  0  0  0  0  0
   22.2157   -9.5494    0.0000 C   0  0  0  0  0  0  0  0  0  0  0  0
   21.5074   -9.1418    0.0000 N   0  0  0  0  0  0  0  0  0  0  0  0
   20.0920   -9.1438    0.0000 C   0  0  0  0  0  0  0  0  0  0  0  0
   20.0901   -8.3276    0.0000 C   0  0  0  0  0  0  0  0  0  0  0  0
   19.3827   -7.9201    0.0000 C   0  0  0  0  0  0  0  0  0  0  0  0
   18.6768   -8.3298    0.0000 C   0  0  0  0  0  0  0  0  0  0  0  0
   18.6813   -9.1512    0.0000 C   0  0  0  0  0  0  0  0  0  0  0  0
   19.3864   -9.5550    0.0000 C   0  0  0  0  0  0  0  0  0  0  0  0
   17.9754   -9.5630    0.0000 O   0  0  0  0  0  0  0  0  0  0  0  0
   17.2659   -9.1576    0.0000 C   0  0  0  0  0  0  0  0  0  0  0  0
   17.9676   -7.9239    0.0000 O   0  0  0  0  0  0  0  0  0  0  0  0
   17.9644   -7.1068    0.0000 C   0  0  0  0  0  0  0  0  0  0  0  0
   32.1100   -9.5649    0.0000 O   0  0  0  0  0  0  0  0  0  0  0  0
   32.1087  -10.3820    0.0000 C   0  0  0  0  0  0  0  0  0  0  0  0
   32.1102   -7.9247    0.0000 O   0  0  0  0  0  0  0  0  0  0  0  0
   32.8182   -8.3329    0.0000 C   0  0  0  0  0  0  0  0  0  0  0  0
  2  1  2  0
  3  2  2  0
  5  4  2  0
  6  5  2  0
  7  8  1  0
  7 12  1  0
  8  9  1  0
  9 10  1  0
 10 11  1  0
 11 12  1  0
 11 13  1  0
 13 14  1  0
 14 15  1  0
 15 16  1  0
 16  5  1  0
  5 17  1  0
 17 18  2  0
 18 19  1  0
 19 20  2  0
 20 21  1  0
 21 22  2  0
 22 17  1  0
  8 23  1  0
 23 24  1  0
 24 25  1  0
 25 26  1  0
 26  2  1  0
  2 27  1  0
 27 28  2  0
 28 29  1  0
 29 30  2  0
 30 31  1  0
 31 32  2  0
 32 27  1  0
 31 33  1  0
 33 34  1  0
 30 35  1  0
 35 36  1  0
 20 37  1  0
 37 38  1  0
 21 39  1  0
 39 40  1  0
M  END
> <chembl_id>
CHEMBL4087856

> <chembl_pref_name>
None

$$$$
CHEMBL4103386
     RDKit          2D

 39 42  0  0  0  0  0  0  0  0999 V2000
    4.4368   -2.0512    0.0000 O   0  0  0  0  0  0  0  0  0  0  0  0
    4.8495   -2.7611    0.0000 S   0  0  0  0  0  0  0  0  0  0  0  0
    5.2579   -2.0487    0.0000 O   0  0  0  0  0  0  0  0  0  0  0  0
   13.7395   -5.0971    0.0000 O   0  0  0  0  0  0  0  0  0  0  0  0
   13.3351   -4.3914    0.0000 S   0  0  0  0  0  0  0  0  0  0  0  0
   12.9261   -5.0945    0.0000 O   0  0  0  0  0  0  0  0  0  0  0  0
    8.3907   -3.1615    0.0000 N   0  0  0  0  0  0  0  0  0  0  0  0
    8.3907   -3.9786    0.0000 C   0  0  0  0  0  0  0  0  0  0  0  0
    9.0959   -4.3831    0.0000 C   0  0  0  0  0  0  0  0  0  0  0  0
    9.8012   -3.9786    0.0000 N   0  0  0  0  0  0  0  0  0  0  0  0
    9.8012   -3.1615    0.0000 C   0  0  0  0  0  0  0  0  0  0  0  0
    9.0959   -2.7487    0.0000 C   0  0  0  0  0  0  0  0  0  0  0  0
   10.5083   -4.3883    0.0000 C   0  0  0  0  0  0  0  0  0  0  0  0
   11.2166   -3.9807    0.0000 C   0  0  0  0  0  0  0  0  0  0  0  0
   11.9237   -4.3903    0.0000 C   0  0  0  0  0  0  0  0  0  0  0  0
   12.6320   -3.9828    0.0000 N   0  0  0  0  0  0  0  0  0  0  0  0
   14.0475   -3.9848    0.0000 C   0  0  0  0  0  0  0  0  0  0  0  0
    7.6818   -2.7549    0.0000 C   0  0  0  0  0  0  0  0  0  0  0  0
    6.9752   -3.1656    0.0000 C   0  0  0  0  0  0  0  0  0  0  0  0
    6.2663   -2.7591    0.0000 C   0  0  0  0  0  0  0  0  0  0  0  0
    5.5598   -3.1698    0.0000 N   0  0  0  0  0  0  0  0  0  0  0  0
    4.1444   -3.1739    0.0000 C   0  0  0  0  0  0  0  0  0  0  0  0
    3.4364   -2.7639    0.0000 C   0  0  0  0  0  0  0  0  0  0  0  0
    2.7303   -3.1739    0.0000 C   0  0  0  0  0  0  0  0  0  0  0  0
    2.7323   -3.9919    0.0000 C   0  0  0  0  0  0  0  0  0  0  0  0
    3.4462   -4.3983    0.0000 C   0  0  0  0  0  0  0  0  0  0  0  0
    4.1493   -3.9860    0.0000 C   0  0  0  0  0  0  0  0  0  0  0  0
   14.7511   -4.3985    0.0000 C   0  0  0  0  0  0  0  0  0  0  0  0
   15.4589   -3.9916    0.0000 C   0  0  0  0  0  0  0  0  0  0  0  0
   15.4606   -3.1735    0.0000 C   0  0  0  0  0  0  0  0  0  0  0  0
   14.7485   -2.7641    0.0000 C   0  0  0  0  0  0  0  0  0  0  0  0
   14.0436   -3.1733    0.0000 C   0  0  0  0  0  0  0  0  0  0  0  0
    2.0263   -4.4035    0.0000 C   0  0  0  0  0  0  0  0  0  0  0  0
   16.1632   -2.7660    0.0000 C   0  0  0  0  0  0  0  0  0  0  0  0
   16.8712   -3.1764    0.0000 C   0  0  0  0  0  0  0  0  0  0  0  0
   17.5784   -2.7685    0.0000 C   0  0  0  0  0  0  0  0  0  0  0  0
   17.5790   -1.9505    0.0000 C   0  0  0  0  0  0  0  0  0  0  0  0
   16.8663   -1.5420    0.0000 C   0  0  0  0  0  0  0  0  0  0  0  0
   16.1620   -1.9521    0.0000 C   0  0  0  0  0  0  0  0  0  0  0  0
  2  1  2  0
  3  2  2  0
  5  4  2  0
  6  5  2  0
  7  8  1  0
  7 12  1  0
  8  9  1  0
  9 10  1  0
 10 11  1  0
 11 12  1  0
 10 13  1  0
 13 14  1  0
 14 15  1  0
 15 16  1  0
 16  5  1  0
  5 17  1  0
  7 18  1  0
 18 19  1  0
 19 20  1  0
 20 21  1  0
 21  2  1  0
  2 22  1  0
 22 23  2  0
 23 24  1  0
 24 25  2  0
 25 26  1  0
 26 27  2  0
 27 22  1  0
 17 28  2  0
 28 29  1  0
 29 30  2  0
 30 31  1  0
 31 32  2  0
 32 17  1  0
 25 33  1  0
 34 35  2  0
 35 36  1  0
 36 37  2  0
 37 38  1  0
 38 39  2  0
 39 34  1  0
 30 34  1  0
M  END
> <chembl_id>
CHEMBL4103386

> <chembl_pref_name>
None

$$$$
CHEMBL51501
     RDKit          2D

 19 21  0  0  0  0  0  0  0  0999 V2000
    1.7000   -5.2750    0.0000 N   0  0  0  0  0  0  0  0  0  0  0  0
    1.1792   -4.9750    0.0000 C   0  0  0  0  0  0  0  0  0  0  0  0
    1.1792   -4.3750    0.0000 N   0  0  0  0  0  0  0  0  0  0  0  0
    2.2250   -4.9667    0.0000 C   0  0  0  0  0  0  0  0  0  0  0  0
    2.2167   -4.3667    0.0000 C   0  0  0  0  0  0  0  0  0  0  0  0
    1.7000   -4.0667    0.0000 C   0  0  0  0  0  0  0  0  0  0  0  0
    2.7917   -4.1792    0.0000 N   0  0  0  0  0  0  0  0  0  0  0  0
    2.8000   -5.1542    0.0000 N   0  0  0  0  0  0  0  0  0  0  0  0
    3.1500   -4.6625    0.0000 C   0  0  0  0  0  0  0  0  0  0  0  0
    0.6625   -5.2750    0.0000 N   0  0  0  0  0  0  0  0  0  0  0  0
    0.1417   -4.9750    0.0000 C   0  0  0  0  0  0  0  0  0  0  0  0
    0.1417   -4.3750    0.0000 C   0  0  0  0  0  0  0  0  0  0  0  0
   -0.3708   -5.2750    0.0000 C   0  0  0  0  0  0  0  0  0  0  0  0
   -0.8958   -4.9750    0.0000 C   0  0  0  0  0  0  0  0  0  0  0  0
   -0.3708   -4.0667    0.0000 C   0  0  0  0  0  0  0  0  0  0  0  0
   -0.8958   -4.3667    0.0000 C   0  0  0  0  0  0  0  0  0  0  0  0
    1.6917   -3.4667    0.0000 N   0  0  0  0  0  0  0  0  0  0  0  0
   -1.4125   -5.2667    0.0000 Cl  0  0  0  0  0  0  0  0  0  0  0  0
   -0.3708   -3.4667    0.0000 Cl  0  0  0  0  0  0  0  0  0  0  0  0
  2  1  2  0
  3  2  1  0
  4  1  1  0
  5  4  1  0
  6  5  2  0
  7  5  1  0
  8  4  2  0
  9  8  1  0
 10  2  1  0
 11 10  1  0
 12 11  2  0
 13 11  1  0
 14 13  2  0
 15 12  1  0
 16 14  1  0
 17  6  1  0
 18 14  1  0
 19 15  1  0
  7  9  2  0
  3  6  1  0
 16 15  2  0
M  END
> <chembl_id>
CHEMBL51501

> <chembl_pref_name>
None

$$$$
CHEMBL4061193
     RDKit          2D

 32 35  0  0  0  0  0  0  0  0999 V2000
    4.2293  -21.4152    0.0000 C   0  0  0  0  0  0  0  0  0  0  0  0
    3.7469  -20.7566    0.0000 C   0  0  0  0  0  0  0  0  0  0  0  0
    3.9937  -19.9769    0.0000 C   0  0  0  0  0  0  0  0  0  0  0  0
    3.3297  -19.5034    0.0000 N   0  0  0  0  0  0  0  0  0  0  0  0
    2.6713  -19.9861    0.0000 C   0  0  0  0  0  0  0  0  0  0  0  0
    2.9297  -20.7608    0.0000 C   0  0  0  0  0  0  0  0  0  0  0  0
    1.8916  -19.7393    0.0000 C   0  0  0  0  0  0  0  0  0  0  0  0
    1.7169  -18.9427    0.0000 C   0  0  0  0  0  0  0  0  0  0  0  0
    0.9371  -18.6959    0.0000 C   0  0  0  0  0  0  0  0  0  0  0  0
    0.3320  -19.2457    0.0000 C   0  0  0  0  0  0  0  0  0  0  0  0
    0.5109  -20.0423    0.0000 C   0  0  0  0  0  0  0  0  0  0  0  0
    1.2865  -20.2933    0.0000 C   0  0  0  0  0  0  0  0  0  0  0  0
    3.3256  -18.6863    0.0000 C   0  0  0  0  0  0  0  0  0  0  0  0
    4.0264  -18.2747    0.0000 C   0  0  0  0  0  0  0  0  0  0  0  0
    4.0222  -17.4575    0.0000 C   0  0  0  0  0  0  0  0  0  0  0  0
    3.3132  -17.0519    0.0000 C   0  0  0  0  0  0  0  0  0  0  0  0
    2.6082  -17.4635    0.0000 C   0  0  0  0  0  0  0  0  0  0  0  0
    2.6124  -18.2807    0.0000 C   0  0  0  0  0  0  0  0  0  0  0  0
    4.7683  -19.7226    0.0000 O   0  0  0  0  0  0  0  0  0  0  0  0
    5.0460  -21.3853    0.0000 C   0  0  0  0  0  0  0  0  0  0  0  0
    5.4759  -22.0807    0.0000 C   0  0  0  0  0  0  0  0  0  0  0  0
    6.2918  -22.0511    0.0000 C   0  0  0  0  0  0  0  0  0  0  0  0
    6.6750  -21.3283    0.0000 C   0  0  0  0  0  0  0  0  0  0  0  0
    6.2363  -20.6339    0.0000 C   0  0  0  0  0  0  0  0  0  0  0  0
    5.4219  -20.6669    0.0000 C   0  0  0  0  0  0  0  0  0  0  0  0
    3.3095  -16.2348    0.0000 C   0  0  0  0  0  0  0  0  0  0  0  0
    7.4936  -21.2948    0.0000 C   0  0  0  0  0  0  0  0  0  0  0  0
    7.9288  -21.9865    0.0000 O   0  0  0  0  0  0  0  0  0  0  0  0
    7.8750  -20.5721    0.0000 O   0  0  0  0  0  0  0  0  0  0  0  0
    7.5473  -22.7092    0.0000 C   0  0  0  0  0  0  0  0  0  0  0  0
    7.9825  -23.4009    0.0000 C   0  0  0  0  0  0  0  0  0  0  0  0
    4.7366  -18.6788    0.0000 C   0  0  0  0  0  0  0  0  0  0  0  0
  1  2  2  0
  2  3  1  0
  3  4  1  0
  4  5  1  0
  5  6  2  0
  2  6  1  0
  5  7  1  0
  7  8  2  0
  8  9  1  0
  9 10  2  0
 10 11  1  0
 11 12  2  0
  7 12  1  0
  4 13  1  0
 13 14  2  0
 14 15  1  0
 15 16  2  0
 16 17  1  0
 17 18  2  0
 13 18  1  0
  3 19  2  0
  1 20  1  0
 20 21  2  0
 21 22  1  0
 22 23  2  0
 23 24  1  0
 24 25  2  0
 25 20  1  0
 16 26  1  0
 27 28  1  0
 27 29  2  0
 23 27  1  0
 28 30  1  0
 30 31  1  0
 14 32  1  0
M  END
> <chembl_id>
CHEMBL4061193

> <chembl_pref_name>
None

$$$$
CHEMBL4438480
     RDKit          2D

 18 20  0  0  0  0  0  0  0  0999 V2000
   23.2474  -19.9862    0.0000 S   0  0  0  0  0  0  0  0  0  0  0  0
   23.7463  -19.3388    0.0000 C   0  0  0  0  0  0  0  0  0  0  0  0
   23.2821  -18.6632    0.0000 N   0  0  0  0  0  0  0  0  0  0  0  0
   22.4770  -19.7137    0.0000 C   0  0  0  0  0  0  0  0  0  0  0  0
   22.5002  -18.8991    0.0000 C   0  0  0  0  0  0  0  0  0  0  0  0
   21.8074  -18.4735    0.0000 C   0  0  0  0  0  0  0  0  0  0  0  0
   21.0910  -18.8614    0.0000 C   0  0  0  0  0  0  0  0  0  0  0  0
   21.0716  -19.6792    0.0000 N   0  0  0  0  0  0  0  0  0  0  0  0
   21.7651  -20.1011    0.0000 C   0  0  0  0  0  0  0  0  0  0  0  0
   24.5600  -19.3625    0.0000 C   0  0  0  0  0  0  0  0  0  0  0  0
   24.9485  -20.0827    0.0000 C   0  0  0  0  0  0  0  0  0  0  0  0
   25.7646  -20.1053    0.0000 C   0  0  0  0  0  0  0  0  0  0  0  0
   26.1932  -19.4084    0.0000 C   0  0  0  0  0  0  0  0  0  0  0  0
   25.7997  -18.6874    0.0000 C   0  0  0  0  0  0  0  0  0  0  0  0
   24.9848  -18.6683    0.0000 C   0  0  0  0  0  0  0  0  0  0  0  0
   24.5937  -17.9508    0.0000 O   0  0  0  0  0  0  0  0  0  0  0  0
   25.0195  -17.2533    0.0000 C   0  0  0  0  0  0  0  0  0  0  0  0
   20.3939  -18.4348    0.0000 N   0  0  0  0  0  0  0  0  0  0  0  0
  4  1  1  0
  1  2  1  0
  2  3  2  0
  3  5  1  0
  4  5  2  0
  5  6  1  0
  6  7  2  0
  7  8  1  0
  8  9  2  0
  9  4  1  0
 10 11  2  0
 11 12  1  0
 12 13  2  0
 13 14  1  0
 14 15  2  0
 15 10  1  0
  2 10  1  0
 15 16  1  0
 16 17  1  0
  7 18  1  0
M  END
> <chembl_id>
CHEMBL4438480

> <chembl_pref_name>
None

$$$$
CHEMBL178590
     RDKit          2D

 19 20  0  0  0  0  0  0  0  0999 V2000
   -1.6498   -0.3166    0.0000 S   0  0  0  0  0  0  0  0  0  0  0  0
   -2.0498    0.4041    0.0000 C   0  0  0  0  0  0  0  0  0  0  0  0
   -2.8747    0.4208    0.0000 C   0  0  0  0  0  0  0  0  0  0  0  0
   -0.8249   -0.3333    0.0000 C   0  0  0  0  0  0  0  0  0  0  0  0
   -1.6498   -1.1415    0.0000 O   0  0  0  0  0  0  0  0  0  0  0  0
    0.8332   -0.3583    0.0000 C   0  0  0  0  0  0  0  0  0  0  0  0
   -3.2746    1.1415    0.0000 O   0  0  0  0  0  0  0  0  0  0  0  0
   -0.4000    0.3791    0.0000 C   0  0  0  0  0  0  0  0  0  0  0  0
   -0.4250   -1.0582    0.0000 C   0  0  0  0  0  0  0  0  0  0  0  0
    0.4333    0.3583    0.0000 C   0  0  0  0  0  0  0  0  0  0  0  0
    0.4083   -1.0665    0.0000 C   0  0  0  0  0  0  0  0  0  0  0  0
    1.6581   -0.3708    0.0000 C   0  0  0  0  0  0  0  0  0  0  0  0
   -3.2996   -0.2833    0.0000 O   0  0  0  0  0  0  0  0  0  0  0  0
    2.0498   -1.0957    0.0000 C   0  0  0  0  0  0  0  0  0  0  0  0
    2.0748    0.3333    0.0000 C   0  0  0  0  0  0  0  0  0  0  0  0
    2.8997    0.3208    0.0000 C   0  0  0  0  0  0  0  0  0  0  0  0
    2.8747   -1.1082    0.0000 C   0  0  0  0  0  0  0  0  0  0  0  0
    3.2996   -0.3958    0.0000 C   0  0  0  0  0  0  0  0  0  0  0  0
   -1.2373    0.3979    0.0000 O   0  0  0  0  0  0  0  0  0  0  0  0
  2  1  1  0
  3  2  1  0
  4  1  1  0
  5  1  2  0
  6 11  2  0
  7  3  2  0
  8  4  1  0
  9  4  2  0
 10  8  2  0
 11  9  1  0
 12  6  1  0
 13  3  1  0
 14 12  2  0
 15 12  1  0
 16 15  2  0
 17 14  1  0
 18 16  1  0
  6 10  1  0
 17 18  2  0
  1 19  2  0
M  END
> <chembl_id>
CHEMBL178590

> <chembl_pref_name>
None

$$$$
CHEMBL1092552
     RDKit          2D

 27 30  0  0  0  0  0  0  0  0999 V2000
   13.8529  -20.1020    0.0000 C   0  0  0  0  0  0  0  0  0  0  0  0
   13.8529  -20.9276    0.0000 C   0  0  0  0  0  0  0  0  0  0  0  0
   14.5640  -21.3381    0.0000 C   0  0  0  0  0  0  0  0  0  0  0  0
   15.2750  -20.9276    0.0000 C   0  0  0  0  0  0  0  0  0  0  0  0
   15.2744  -20.1000    0.0000 C   0  0  0  0  0  0  0  0  0  0  0  0
   14.5640  -19.6868    0.0000 C   0  0  0  0  0  0  0  0  0  0  0  0
   15.9881  -21.3438    0.0000 N   0  0  0  0  0  0  0  0  0  0  0  0
   16.7070  -20.9298    0.0000 C   0  0  0  0  0  0  0  0  0  0  0  0
   17.4182  -21.3470    0.0000 C   0  0  0  0  0  0  0  0  0  0  0  0
   18.1321  -20.9339    0.0000 C   0  0  0  0  0  0  0  0  0  0  0  0
   18.1339  -20.1072    0.0000 C   0  0  0  0  0  0  0  0  0  0  0  0
   17.4154  -19.6958    0.0000 C   0  0  0  0  0  0  0  0  0  0  0  0
   17.4159  -22.1680    0.0000 C   0  0  0  0  0  0  0  0  0  0  0  0
   16.7010  -22.5811    0.0000 O   0  0  0  0  0  0  0  0  0  0  0  0
   18.1284  -22.5853    0.0000 N   0  0  0  0  0  0  0  0  0  0  0  0
   14.5640  -22.1637    0.0000 O   0  0  0  0  0  0  0  0  0  0  0  0
   13.8502  -22.5742    0.0000 C   0  0  0  0  0  0  0  0  0  0  0  0
   15.9890  -19.6910    0.0000 C   0  0  0  0  0  0  0  0  0  0  0  0
   16.7064  -20.1030    0.0000 C   0  0  0  0  0  0  0  0  0  0  0  0
   15.9906  -18.8654    0.0000 O   0  0  0  0  0  0  0  0  0  0  0  0
   18.8434  -22.1722    0.0000 C   0  0  0  0  0  0  0  0  0  0  0  0
   19.5564  -22.5908    0.0000 N   0  0  0  0  0  0  0  0  0  0  0  0
   20.2708  -22.1786    0.0000 C   0  0  0  0  0  0  0  0  0  0  0  0
   20.2736  -21.3520    0.0000 C   0  0  0  0  0  0  0  0  0  0  0  0
   19.5556  -20.9397    0.0000 C   0  0  0  0  0  0  0  0  0  0  0  0
   18.8399  -21.3500    0.0000 C   0  0  0  0  0  0  0  0  0  0  0  0
   18.8477  -19.6968    0.0000 F   0  0  0  0  0  0  0  0  0  0  0  0
  5  6  1  0
  9 13  1  0
 13 14  2  0
  4  7  1  0
 13 15  1  0
  1  2  1  0
  3 16  1  0
  7  8  1  0
 16 17  1  0
  1  6  2  0
  5 18  1  0
  8  9  1  0
 18 19  1  0
  2  3  2  0
 18 20  2  0
  9 10  2  0
 15 21  1  0
  3  4  1  0
 21 22  2  0
 10 11  1  0
 22 23  1  0
  4  5  2  0
 23 24  2  0
 11 12  2  0
 24 25  1  0
 12 19  1  0
 25 26  2  0
 26 21  1  0
 19  8  2  0
 11 27  1  0
M  END
> <chembl_id>
CHEMBL1092552

> <chembl_pref_name>
None

$$$$
CHEMBL3114565
     RDKit          2D

 38 40  0  0  0  0  0  0  0  0999 V2000
    2.5748  -16.8256    0.0000 N   0  0  0  0  0  0  0  0  0  0  0  0
    2.5323  -15.5028    0.0000 N   0  0  0  0  0  0  0  0  0  0  0  0
    2.0761  -16.1797    0.0000 C   0  0  0  0  0  0  0  0  0  0  0  0
    4.7517  -15.3611    0.0000 N   0  0  0  0  0  0  0  0  0  0  0  0
    5.1230  -16.0879    0.0000 C   0  0  0  0  0  0  0  0  0  0  0  0
    4.7902  -16.8333    0.0000 N   0  0  0  0  0  0  0  0  0  0  0  0
    4.0027  -17.0395    0.0000 C   0  0  0  0  0  0  0  0  0  0  0  0
    3.9437  -15.2014    0.0000 C   0  0  0  0  0  0  0  0  0  0  0  0
    3.3437  -16.5480    0.0000 C   0  0  0  0  0  0  0  0  0  0  0  0
    3.3195  -15.7316    0.0000 C   0  0  0  0  0  0  0  0  0  0  0  0
    3.7380  -14.4106    0.0000 O   0  0  0  0  0  0  0  0  0  0  0  0
    5.9399  -16.0665    0.0000 N   0  0  0  0  0  0  0  0  0  0  0  0
    3.8464  -17.8416    0.0000 O   0  0  0  0  0  0  0  0  0  0  0  0
    6.3668  -16.7633    0.0000 C   0  0  0  0  0  0  0  0  0  0  0  0
    7.1838  -16.7419    0.0000 C   0  0  0  0  0  0  0  0  0  0  0  0
    7.6107  -17.4387    0.0000 C   0  0  0  0  0  0  0  0  0  0  0  0
    8.4276  -17.4173    0.0000 C   0  0  0  0  0  0  0  0  0  0  0  0
    8.8546  -18.1141    0.0000 C   0  0  0  0  0  0  0  0  0  0  0  0
    9.6715  -18.0927    0.0000 C   0  0  0  0  0  0  0  0  0  0  0  0
   10.0985  -18.7895    0.0000 C   0  0  0  0  0  0  0  0  0  0  0  0
   10.9154  -18.7681    0.0000 C   0  0  0  0  0  0  0  0  0  0  0  0
    2.2725  -17.5853    0.0000 C   0  0  0  0  0  0  0  0  0  0  0  0
    1.4827  -17.7860    0.0000 O   0  0  0  0  0  0  0  0  0  0  0  0
    1.4302  -18.6015    0.0000 C   0  0  0  0  0  0  0  0  0  0  0  0
    2.1896  -18.9035    0.0000 C   0  0  0  0  0  0  0  0  0  0  0  0
    2.7113  -18.2746    0.0000 C   0  0  0  0  0  0  0  0  0  0  0  0
    0.7396  -19.0383    0.0000 C   0  0  0  0  0  0  0  0  0  0  0  0
    0.0159  -18.6586    0.0000 O   0  0  0  0  0  0  0  0  0  0  0  0
    2.3917  -19.6953    0.0000 O   0  0  0  0  0  0  0  0  0  0  0  0
    3.5269  -18.3259    0.0000 O   0  0  0  0  0  0  0  0  0  0  0  0
   11.3424  -19.4649    0.0000 C   0  0  0  0  0  0  0  0  0  0  0  0
   12.1593  -19.4435    0.0000 C   0  0  0  0  0  0  0  0  0  0  0  0
   12.5862  -20.1403    0.0000 C   0  0  0  0  0  0  0  0  0  0  0  0
   13.4031  -20.1189    0.0000 C   0  0  0  0  0  0  0  0  0  0  0  0
   13.8301  -20.8157    0.0000 C   0  0  0  0  0  0  0  0  0  0  0  0
   14.6470  -20.7943    0.0000 C   0  0  0  0  0  0  0  0  0  0  0  0
   15.0740  -21.4911    0.0000 C   0  0  0  0  0  0  0  0  0  0  0  0
   15.8909  -21.4697    0.0000 C   0  0  0  0  0  0  0  0  0  0  0  0
  1  9  1  0
 10  2  1  0
  2  3  2  0
  3  1  1  0
  4  5  2  0
  5  6  1  0
  6  7  1  0
  4  8  1  0
  7  9  1  0
  8 10  1  0
  9 10  2  0
  8 11  2  0
  5 12  1  0
  7 13  2  0
 12 14  1  0
 14 15  1  0
 15 16  1  0
 16 17  1  0
 17 18  1  0
 18 19  1  0
 19 20  1  0
 20 21  1  0
 22  1  1  1
 22 23  1  0
 23 24  1  0
 24 25  1  0
 25 26  1  0
 26 22  1  0
 24 27  1  1
 27 28  1  0
 25 29  1  6
 26 30  1  6
 21 31  1  0
 31 32  1  0
 32 33  1  0
 33 34  1  0
 34 35  1  0
 35 36  1  0
 36 37  1  0
 37 38  1  0
M  END
> <chembl_id>
CHEMBL3114565

> <chembl_pref_name>
None

$$$$
CHEMBL4064427
     RDKit          2D

 31 33  0  0  0  0  0  0  0  0999 V2000
   29.4296   -2.9834    0.0000 O   0  0  0  0  0  0  0  0  0  0  0  0
   29.8462   -3.7001    0.0000 S   0  0  0  0  0  0  0  0  0  0  0  0
   30.2587   -2.9809    0.0000 O   0  0  0  0  0  0  0  0  0  0  0  0
   21.5753   -1.7542    0.0000 O   0  0  0  0  0  0  0  0  0  0  0  0
   21.9920   -2.4708    0.0000 S   0  0  0  0  0  0  0  0  0  0  0  0
   22.4043   -1.7517    0.0000 O   0  0  0  0  0  0  0  0  0  0  0  0
   25.5671   -2.8751    0.0000 N   0  0  0  0  0  0  0  0  0  0  0  0
   25.5671   -3.7001    0.0000 C   0  0  0  0  0  0  0  0  0  0  0  0
   26.2791   -4.1083    0.0000 C   0  0  0  0  0  0  0  0  0  0  0  0
   26.9911   -3.7001    0.0000 N   0  0  0  0  0  0  0  0  0  0  0  0
   26.9911   -2.8751    0.0000 C   0  0  0  0  0  0  0  0  0  0  0  0
   26.2791   -2.4584    0.0000 C   0  0  0  0  0  0  0  0  0  0  0  0
   24.8514   -2.4647    0.0000 C   0  0  0  0  0  0  0  0  0  0  0  0
   24.1381   -2.8792    0.0000 C   0  0  0  0  0  0  0  0  0  0  0  0
   23.4224   -2.4688    0.0000 C   0  0  0  0  0  0  0  0  0  0  0  0
   22.7092   -2.8834    0.0000 N   0  0  0  0  0  0  0  0  0  0  0  0
   21.2801   -2.8876    0.0000 C   0  0  0  0  0  0  0  0  0  0  0  0
   27.7049   -4.1136    0.0000 C   0  0  0  0  0  0  0  0  0  0  0  0
   28.4200   -3.7021    0.0000 C   0  0  0  0  0  0  0  0  0  0  0  0
   29.1340   -4.1157    0.0000 N   0  0  0  0  0  0  0  0  0  0  0  0
   30.5629   -4.1177    0.0000 C   0  0  0  0  0  0  0  0  0  0  0  0
   20.5654   -2.4737    0.0000 C   0  0  0  0  0  0  0  0  0  0  0  0
   19.8526   -2.8876    0.0000 C   0  0  0  0  0  0  0  0  0  0  0  0
   19.8545   -3.7135    0.0000 C   0  0  0  0  0  0  0  0  0  0  0  0
   20.5753   -4.1237    0.0000 C   0  0  0  0  0  0  0  0  0  0  0  0
   21.2851   -3.7074    0.0000 C   0  0  0  0  0  0  0  0  0  0  0  0
   30.5590   -4.9429    0.0000 C   0  0  0  0  0  0  0  0  0  0  0  0
   31.2721   -5.3563    0.0000 C   0  0  0  0  0  0  0  0  0  0  0  0
   31.9880   -4.9448    0.0000 C   0  0  0  0  0  0  0  0  0  0  0  0
   31.9866   -4.1155    0.0000 C   0  0  0  0  0  0  0  0  0  0  0  0
   31.2730   -3.7057    0.0000 C   0  0  0  0  0  0  0  0  0  0  0  0
  2  1  2  0
  3  2  2  0
  5  4  2  0
  6  5  2  0
  7  8  1  0
  7 12  1  0
  8  9  1  0
  9 10  1  0
 10 11  1  0
 11 12  1  0
  7 13  1  0
 13 14  1  0
 14 15  1  0
 15 16  1  0
 16  5  1  0
  5 17  1  0
 10 18  1  0
 18 19  1  0
 19 20  1  0
 20  2  1  0
  2 21  1  0
 17 22  2  0
 22 23  1  0
 23 24  2  0
 24 25  1  0
 25 26  2  0
 26 17  1  0
 21 27  2  0
 27 28  1  0
 28 29  2  0
 29 30  1  0
 30 31  2  0
 31 21  1  0
M  END
> <chembl_id>
CHEMBL4064427

> <chembl_pref_name>
None

$$$$
CHEMBL1813567
     RDKit          2D

 60 64  0  0  0  0  0  0  0  0999 V2000
    7.9368   -1.9016    0.0000 O   0  0  0  0  0  0  0  0  0  0  0  0
    8.0385   -2.7201    0.0000 S   0  0  0  0  0  0  0  0  0  0  0  0
    8.8495   -2.5754    0.0000 O   0  0  0  0  0  0  0  0  0  0  0  0
    4.0918   -3.7234    0.0000 O   0  0  0  0  0  0  0  0  0  0  0  0
    3.3738   -4.1380    0.0000 C   0  0  0  0  0  0  0  0  0  0  0  0
    1.9402   -4.9546    0.0000 N   0  0  0  0  0  0  0  0  0  0  0  0
    2.6596   -5.3675    0.0000 C   0  0  0  0  0  0  0  0  0  0  0  0
    3.3738   -4.9599    0.0000 C   0  0  0  0  0  0  0  0  0  0  0  0
    1.9402   -4.1263    0.0000 C   0  0  0  0  0  0  0  0  0  0  0  0
    2.6544   -3.7250    0.0000 C   0  0  0  0  0  0  0  0  0  0  0  0
    2.6544   -2.9041    0.0000 C   0  0  0  0  0  0  0  0  0  0  0  0
    1.9471   -2.4936    0.0000 C   0  0  0  0  0  0  0  0  0  0  0  0
    1.2364   -2.9018    0.0000 C   0  0  0  0  0  0  0  0  0  0  0  0
    1.2364   -3.7164    0.0000 C   0  0  0  0  0  0  0  0  0  0  0  0
    0.5175   -2.4868    0.0000 O   0  0  0  0  0  0  0  0  0  0  0  0
    0.5175   -1.6649    0.0000 C   0  0  0  0  0  0  0  0  0  0  0  0
    2.6596   -6.1980    0.0000 C   0  0  0  0  0  0  0  0  0  0  0  0
    1.9435   -6.6054    0.0000 C   0  0  0  0  0  0  0  0  0  0  0  0
    1.9435   -7.4337    0.0000 C   0  0  0  0  0  0  0  0  0  0  0  0
    2.6562   -7.8493    0.0000 C   0  0  0  0  0  0  0  0  0  0  0  0
    3.3766   -7.4335    0.0000 C   0  0  0  0  0  0  0  0  0  0  0  0
    3.3766   -6.6054    0.0000 C   0  0  0  0  0  0  0  0  0  0  0  0
    4.8149   -4.1423    0.0000 C   0  0  0  0  0  0  0  0  0  0  0  0
    4.8149   -4.9483    0.0000 C   0  0  0  0  0  0  0  0  0  0  0  0
    5.5229   -5.3593    0.0000 C   0  0  0  0  0  0  0  0  0  0  0  0
    6.2269   -4.9479    0.0000 C   0  0  0  0  0  0  0  0  0  0  0  0
    6.2269   -4.1220    0.0000 C   0  0  0  0  0  0  0  0  0  0  0  0
    5.4673   -3.7620    0.0000 C   0  0  0  0  0  0  0  0  0  0  0  0
    7.1660   -5.3744    0.0000 C   0  0  0  0  0  0  0  0  0  0  0  0
    6.6446   -6.7085    0.0000 C   0  0  0  0  0  0  0  0  0  0  0  0
    6.7652   -7.5247    0.0000 C   0  0  0  0  0  0  0  0  0  0  0  0
    5.8733   -6.4061    0.0000 O   0  0  0  0  0  0  0  0  0  0  0  0
    7.5365   -7.8313    0.0000 C   0  0  0  0  0  0  0  0  0  0  0  0
    7.6572   -8.6432    0.0000 C   0  0  0  0  0  0  0  0  0  0  0  0
    7.6782   -7.0164    0.0000 C   0  0  0  0  0  0  0  0  0  0  0  0
    8.3635   -7.8313    0.0000 C   0  0  0  0  0  0  0  0  0  0  0  0
    9.3358   -4.5999    0.0000 C   0  0  0  0  0  0  0  0  0  0  0  0
   10.1215   -4.8515    0.0000 C   0  0  0  0  0  0  0  0  0  0  0  0
    9.1054   -3.7254    0.0000 C   0  0  0  0  0  0  0  0  0  0  0  0
   10.7307   -4.2928    0.0000 C   0  0  0  0  0  0  0  0  0  0  0  0
   11.5207   -4.5444    0.0000 C   0  0  0  0  0  0  0  0  0  0  0  0
    9.6662   -3.1182    0.0000 O   0  0  0  0  0  0  0  0  0  0  0  0
    5.5256   -2.9643    0.0000 C   0  0  0  0  0  0  0  0  0  0  0  0
    6.2936   -2.8657    0.0000 C   0  0  0  0  0  0  0  0  0  0  0  0
    6.2936   -2.0947    0.0000 C   0  0  0  0  0  0  0  0  0  0  0  0
    7.0627   -2.0204    0.0000 C   0  0  0  0  0  0  0  0  0  0  0  0
    7.2545   -2.7780    0.0000 C   0  0  0  0  0  0  0  0  0  0  0  0
    6.2476   -8.8593    0.0000 C   0  0  0  0  0  0  0  0  0  0  0  0
    7.0194   -9.1574    0.0000 O   0  0  0  0  0  0  0  0  0  0  0  0
    5.6005   -9.3809    0.0000 O   0  0  0  0  0  0  0  0  0  0  0  0
    5.7246  -10.2062    0.0000 C   0  0  0  0  0  0  0  0  0  0  0  0
    5.0752  -10.7211    0.0000 C   0  0  0  0  0  0  0  0  0  0  0  0
    6.4898  -10.5035    0.0000 C   0  0  0  0  0  0  0  0  0  0  0  0
    5.8575  -11.0216    0.0000 C   0  0  0  0  0  0  0  0  0  0  0  0
    7.2930   -6.1927    0.0000 N   0  0  0  0  0  0  0  0  0  0  0  0
    6.1232   -8.0405    0.0000 N   0  0  0  0  0  0  0  0  0  0  0  0
    8.6393   -5.1898    0.0000 N   0  0  0  0  0  0  0  0  0  0  0  0
    8.2445   -3.5817    0.0000 N   0  0  0  0  0  0  0  0  0  0  0  0
    7.8325   -4.7892    0.0000 C   0  0  0  0  0  0  0  0  0  0  0  0
    7.6190   -3.9923    0.0000 O   0  0  0  0  0  0  0  0  0  0  0  0
  5 10  2  0
  9  6  2  0
  6  7  1  0
  7  8  2  0
  8  5  1  0
  9 10  1  0
 10 11  1  0
 11 12  2  0
 12 13  1  0
 13 14  2  0
 14  9  1  0
 13 15  1  0
 15 16  1  0
  7 17  1  0
 17 18  2  0
 18 19  1  0
 19 20  2  0
 20 21  1  0
 21 22  2  0
 22 17  1  0
  4 23  1  0
 23 24  2  0
 24 25  1  0
 25 26  2  0
 26 27  1  0
 27 28  2  0
 28 23  1  0
 29 26  1  0
 29 55  1  1
 55 30  1  0
 30 31  1  0
 30 32  2  0
 31 56  1  0
 31 33  1  6
 33 34  1  0
 33 35  1  0
 33 36  1  0
 29 59  1  0
 59 57  1  0
 57 37  1  0
 37 38  1  6
 37 39  1  0
 38 40  1  0
 40 41  1  0
 39 42  2  0
 39 58  1  0
 58  2  1  0
 28 43  1  0
 43 44  2  0
 44 45  1  0
 45 46  1  0
 46 47  1  0
  2 47  1  0
 56 48  1  0
 48 49  2  0
 48 50  1  0
 50 51  1  0
 51 52  1  0
 51 53  1  0
 51 54  1  0
  2  1  2  0
  3  2  2  0
  4  5  1  0
 59 60  2  0
M  END
> <chembl_id>
CHEMBL1813567

> <chembl_pref_name>
None

$$$$
CHEMBL1351362
     RDKit          2D

 23 25  0  0  0  0  0  0  0  0999 V2000
    4.0730    2.2352    0.0000 Cl  0  0  0  0  0  0  0  0  0  0  0  0
    1.0534   -3.0141    0.0000 O   0  0  0  0  0  0  0  0  0  0  0  0
    1.1590    0.9865    0.0000 O   0  0  0  0  0  0  0  0  0  0  0  0
    2.1333   -0.4346    0.0000 N   0  0  0  0  0  0  0  0  0  0  0  0
    2.3883   -1.2192    0.0000 N   0  0  0  0  0  0  0  0  0  0  0  0
    0.0029    0.1466    0.0000 N   0  0  0  0  0  0  0  0  0  0  0  0
    1.3083   -0.4346    0.0000 C   0  0  0  0  0  0  0  0  0  0  0  0
    1.7208   -1.7041    0.0000 C   0  0  0  0  0  0  0  0  0  0  0  0
    1.0534   -1.2192    0.0000 C   0  0  0  0  0  0  0  0  0  0  0  0
    2.6182    0.2329    0.0000 C   0  0  0  0  0  0  0  0  0  0  0  0
    1.7208   -2.5291    0.0000 C   0  0  0  0  0  0  0  0  0  0  0  0
    0.8234    0.2329    0.0000 C   0  0  0  0  0  0  0  0  0  0  0  0
    2.2827    0.9865    0.0000 C   0  0  0  0  0  0  0  0  0  0  0  0
    3.4387    0.1466    0.0000 C   0  0  0  0  0  0  0  0  0  0  0  0
    2.3883   -3.0141    0.0000 C   0  0  0  0  0  0  0  0  0  0  0  0
    2.7676    1.6540    0.0000 C   0  0  0  0  0  0  0  0  0  0  0  0
    3.9236    0.8141    0.0000 C   0  0  0  0  0  0  0  0  0  0  0  0
    3.5881    1.5677    0.0000 C   0  0  0  0  0  0  0  0  0  0  0  0
    1.3083   -3.7987    0.0000 C   0  0  0  0  0  0  0  0  0  0  0  0
    2.1333   -3.7987    0.0000 C   0  0  0  0  0  0  0  0  0  0  0  0
   -0.3326   -0.6071    0.0000 C   0  0  0  0  0  0  0  0  0  0  0  0
    0.1523   -1.2745    0.0000 C   0  0  0  0  0  0  0  0  0  0  0  0
   -1.1531   -0.6933    0.0000 C   0  0  0  0  0  0  0  0  0  0  0  0
  1 18  1  0
  2 11  1  0
  2 19  1  0
  3 12  2  0
  4  5  1  0
  4  7  1  0
  4 10  1  0
  5  8  2  0
  6 12  1  0
  6 21  1  0
  7  9  2  0
  7 12  1  0
  8  9  1  0
  8 11  1  0
 10 13  2  0
 10 14  1  0
 11 15  2  0
 13 16  1  0
 14 17  2  0
 15 20  1  0
 16 18  2  0
 17 18  1  0
 19 20  2  0
 21 22  1  0
 21 23  1  0
M  END
> <chembl_id>
CHEMBL1351362

> <chembl_pref_name>
None

$$$$
CHEMBL53890
     RDKit          2D

 18 20  0  0  0  0  0  0  0  0999 V2000
    6.9667   -7.0125    0.0000 N   0  0  0  0  0  0  0  0  0  0  0  0
    7.4917   -6.7125    0.0000 C   0  0  0  0  0  0  0  0  0  0  0  0
    7.4917   -6.1125    0.0000 C   0  0  0  0  0  0  0  0  0  0  0  0
    6.4542   -6.7125    0.0000 C   0  0  0  0  0  0  0  0  0  0  0  0
    6.4542   -6.1125    0.0000 N   0  0  0  0  0  0  0  0  0  0  0  0
    6.9667   -5.8125    0.0000 C   0  0  0  0  0  0  0  0  0  0  0  0
    8.0542   -5.9250    0.0000 N   0  0  0  0  0  0  0  0  0  0  0  0
    8.0667   -6.8917    0.0000 N   0  0  0  0  0  0  0  0  0  0  0  0
    8.4125   -6.4042    0.0000 C   0  0  0  0  0  0  0  0  0  0  0  0
    5.9375   -7.0125    0.0000 N   0  0  0  0  0  0  0  0  0  0  0  0
    6.9667   -5.2125    0.0000 O   0  0  0  0  0  0  0  0  0  0  0  0
    5.4167   -6.7125    0.0000 C   0  0  0  0  0  0  0  0  0  0  0  0
    4.3792   -6.1125    0.0000 C   0  0  0  0  0  0  0  0  0  0  0  0
    5.4167   -6.1125    0.0000 C   0  0  0  0  0  0  0  0  0  0  0  0
    4.9042   -7.0125    0.0000 C   0  0  0  0  0  0  0  0  0  0  0  0
    4.3792   -6.7167    0.0000 C   0  0  0  0  0  0  0  0  0  0  0  0
    4.9042   -5.8125    0.0000 C   0  0  0  0  0  0  0  0  0  0  0  0
    3.8625   -5.8125    0.0000 O   0  0  0  0  0  0  0  0  0  0  0  0
  2  1  2  0
  3  2  1  0
  4  1  1  0
  5  4  2  0
  6  5  1  0
  7  3  1  0
  8  2  1  0
  9  8  2  0
 10  4  1  0
 11  6  1  0
 12 10  1  0
 13 16  1  0
 14 12  2  0
 15 12  1  0
 16 15  2  0
 17 14  1  0
 18 13  1  0
  3  6  2  0
  9  7  1  0
 17 13  2  0
M  END
> <chembl_id>
CHEMBL53890

> <chembl_pref_name>
None

$$$$
CHEMBL2059287
     RDKit          2D

 35 38  0  0  0  0  0  0  0  0999 V2000
   10.9819  -20.9687    0.0000 C   0  0  0  0  0  0  0  0  0  0  0  0
   10.5699  -21.6871    0.0000 C   0  0  0  0  0  0  0  0  0  0  0  0
   11.3932  -21.6875    0.0000 C   0  0  0  0  0  0  0  0  0  0  0  0
   10.2671  -19.7359    0.0000 C   0  0  0  0  0  0  0  0  0  0  0  0
   10.2671  -20.5592    0.0000 C   0  0  0  0  0  0  0  0  0  0  0  0
   10.9819  -19.3179    0.0000 C   0  0  0  0  0  0  0  0  0  0  0  0
   11.6926  -19.7359    0.0000 C   0  0  0  0  0  0  0  0  0  0  0  0
   11.6942  -20.5592    0.0000 C   0  0  0  0  0  0  0  0  0  0  0  0
   12.4076  -20.9702    0.0000 C   0  0  0  0  0  0  0  0  0  0  0  0
   13.1222  -20.5606    0.0000 C   0  0  0  0  0  0  0  0  0  0  0  0
   12.4044  -19.3194    0.0000 C   0  0  0  0  0  0  0  0  0  0  0  0
   13.1175  -19.7307    0.0000 C   0  0  0  0  0  0  0  0  0  0  0  0
   13.1156  -18.0828    0.0000 C   0  0  0  0  0  0  0  0  0  0  0  0
   12.4029  -18.4967    0.0000 C   0  0  0  0  0  0  0  0  0  0  0  0
   13.8328  -18.4982    0.0000 C   0  0  0  0  0  0  0  0  0  0  0  0
   13.8351  -19.3206    0.0000 C   0  0  0  0  0  0  0  0  0  0  0  0
   14.6179  -19.5749    0.0000 C   0  0  0  0  0  0  0  0  0  0  0  0
   15.1036  -18.9060    0.0000 C   0  0  0  0  0  0  0  0  0  0  0  0
   14.6185  -18.2399    0.0000 C   0  0  0  0  0  0  0  0  0  0  0  0
   11.6919  -21.3845    0.0000 H   0  0  0  0  0  0  0  0  0  0  0  0
   11.6856  -18.9083    0.0000 C   0  0  0  0  0  0  0  0  0  0  0  0
   13.1127  -18.9063    0.0000 H   0  0  0  0  0  0  0  0  0  0  0  0
   13.8282  -20.1475    0.0000 C   0  0  0  0  0  0  0  0  0  0  0  0
   13.8282  -17.6693    0.0000 C   0  0  0  0  0  0  0  0  0  0  0  0
   14.5971  -17.4116    0.0000 C   0  0  0  0  0  0  0  0  0  0  0  0
   15.3038  -16.9856    0.0000 C   0  0  0  0  0  0  0  0  0  0  0  0
   13.8715  -17.0189    0.0000 C   0  0  0  0  0  0  0  0  0  0  0  0
   16.0293  -17.3783    0.0000 C   0  0  0  0  0  0  0  0  0  0  0  0
   16.7320  -16.9481    0.0000 C   0  0  0  0  0  0  0  0  0  0  0  0
   17.4575  -17.3409    0.0000 C   0  0  0  0  0  0  0  0  0  0  0  0
   18.1643  -16.9106    0.0000 C   0  0  0  0  0  0  0  0  0  0  0  0
   17.4804  -18.1679    0.0000 C   0  0  0  0  0  0  0  0  0  0  0  0
   15.3935  -17.9635    0.0000 H   0  0  0  0  0  0  0  0  0  0  0  0
   16.7132  -16.1210    0.0000 C   0  0  0  0  0  0  0  0  0  0  0  0
    9.5536  -20.9766    0.0000 O   0  0  0  0  0  0  0  0  0  0  0  0
  2  1  1  0
  1  3  1  0
  4  5  1  0
  4  6  1  0
  5  1  1  0
  1  8  1  0
  7  6  1  0
  7  8  1  0
  7 11  1  0
  8  9  1  0
  9 10  1  0
 10 12  1  0
 11 12  1  0
 11 14  2  0
 12 16  1  0
 15 13  1  0
 13 14  1  0
 15 16  1  0
 16 17  1  0
 17 18  1  0
 18 19  1  0
 19 15  1  0
  8 20  1  6
  7 21  1  1
 12 22  1  1
 16 23  1  6
 15 24  1  1
 19 25  1  0
 25 26  1  0
 25 27  1  6
 26 28  1  0
 28 29  1  0
 29 30  1  0
 30 31  2  0
 30 32  1  0
 19 33  1  6
 29 34  1  6
  5 35  2  0
M  END
> <chembl_id>
CHEMBL2059287

> <chembl_pref_name>
None

$$$$
CHEMBL3932045
     RDKit          2D

 25 28  0  0  0  0  0  0  0  0999 V2000
   10.3224  -21.1302    0.0000 C   0  0  0  0  0  0  0  0  0  0  0  0
   11.0231  -20.7113    0.0000 C   0  0  0  0  0  0  0  0  0  0  0  0
   11.7363  -21.1096    0.0000 C   0  0  0  0  0  0  0  0  0  0  0  0
   12.4369  -20.6908    0.0000 C   0  0  0  0  0  0  0  0  0  0  0  0
   12.4286  -19.8737    0.0000 C   0  0  0  0  0  0  0  0  0  0  0  0
   11.7154  -19.4755    0.0000 C   0  0  0  0  0  0  0  0  0  0  0  0
   11.0147  -19.8943    0.0000 C   0  0  0  0  0  0  0  0  0  0  0  0
    9.6092  -20.7278    0.0000 O   0  0  0  0  0  0  0  0  0  0  0  0
   10.3308  -21.9472    0.0000 N   0  0  0  0  0  0  0  0  0  0  0  0
    9.6301  -22.3619    0.0000 N   0  0  0  0  0  0  0  0  0  0  0  0
   11.7029  -18.6584    0.0000 O   0  0  0  0  0  0  0  0  0  0  0  0
   11.7488  -21.9267    0.0000 O   0  0  0  0  0  0  0  0  0  0  0  0
   10.3641  -24.3985    0.0000 C   0  0  0  0  0  0  0  0  0  0  0  0
    9.6634  -24.8131    0.0000 N   0  0  0  0  0  0  0  0  0  0  0  0
    8.9503  -24.4149    0.0000 C   0  0  0  0  0  0  0  0  0  0  0  0
    8.9378  -23.5978    0.0000 C   0  0  0  0  0  0  0  0  0  0  0  0
    9.6426  -23.1790    0.0000 C   0  0  0  0  0  0  0  0  0  0  0  0
   10.3558  -23.5814    0.0000 N   0  0  0  0  0  0  0  0  0  0  0  0
    8.1596  -23.3548    0.0000 C   0  0  0  0  0  0  0  0  0  0  0  0
    7.6889  -24.0237    0.0000 C   0  0  0  0  0  0  0  0  0  0  0  0
    8.1783  -24.6771    0.0000 S   0  0  0  0  0  0  0  0  0  0  0  0
    6.8727  -23.9479    0.0000 C   0  0  0  0  0  0  0  0  0  0  0  0
    6.5314  -23.2075    0.0000 C   0  0  0  0  0  0  0  0  0  0  0  0
    7.0022  -22.5387    0.0000 C   0  0  0  0  0  0  0  0  0  0  0  0
    7.8142  -22.6144    0.0000 C   0  0  0  0  0  0  0  0  0  0  0  0
  1  2  1  0
  2  3  1  0
  3  4  2  0
  4  5  1  0
  5  6  2  0
  6  7  1  0
  2  7  2  0
  9 10  1  0
  1  8  2  0
  1  9  1  0
  6 11  1  0
  3 12  1  0
 13 14  1  0
 14 15  2  0
 15 16  1  0
 16 17  2  0
 17 18  1  0
 13 18  2  0
 19 20  1  0
 20 21  1  0
 22 23  1  0
 23 24  2  0
 24 25  1  0
 19 25  2  0
 20 22  2  0
 15 21  1  0
 16 19  1  0
 10 17  1  0
M  END
> <chembl_id>
CHEMBL3932045

> <chembl_pref_name>
None

$$$$
CHEMBL1734606
     RDKit          2D

 33 36  0  0  1  0  0  0  0  0999 V2000
    5.2956    0.0051    0.0000 O   0  0  0  0  0  0  0  0  0  0  0  0
    2.3676    0.1626    0.0000 O   0  0  0  0  0  0  0  0  0  0  0  0
    3.7965   -2.3124    0.0000 O   0  0  0  0  0  0  0  0  0  0  0  0
    0.2241   -0.2499    0.0000 O   0  0  0  0  0  0  0  0  0  0  0  0
    2.3676   -2.3124    0.0000 O   0  0  0  0  0  0  0  0  0  0  0  0
   -0.4903    0.9876    0.0000 O   0  0  0  0  0  0  0  0  0  0  0  0
    7.4305   -0.6624    0.0000 O   0  0  0  0  0  0  0  0  0  0  0  0
   -1.2048   -1.0749    0.0000 O   0  0  0  0  0  0  0  0  0  0  0  0
   -2.6337   -0.2499    0.0000 O   0  0  0  0  0  0  0  0  0  0  0  0
   -2.6337    1.4001    0.0000 O   0  0  0  0  0  0  0  0  0  0  0  0
   -1.9193    2.6376    0.0000 O   0  0  0  0  0  0  0  0  0  0  0  0
    4.5110   -1.0749    0.0000 C   0  0  0  0  0  0  0  0  0  0  0  0
    3.0820   -1.0749    0.0000 C   0  0  0  0  0  0  0  0  0  0  0  0
    3.7965   -1.4874    0.0000 C   0  0  0  0  0  0  0  0  0  0  0  0
    4.5110   -0.2499    0.0000 C   0  0  0  0  0  0  0  0  0  0  0  0
    3.0820   -0.2499    0.0000 C   0  0  0  0  0  0  0  0  0  0  0  0
    5.7805   -0.6624    0.0000 C   0  0  0  0  0  0  0  0  0  0  0  0
    3.7965    0.1626    0.0000 C   0  0  0  0  0  0  0  0  0  0  0  0
    2.3676   -1.4874    0.0000 C   0  0  0  0  0  0  0  0  0  0  0  0
    5.2956   -1.3298    0.0000 C   0  0  0  0  0  0  0  0  0  0  0  0
    1.6531   -0.2499    0.0000 C   0  0  0  0  0  0  0  0  0  0  0  0
    6.6055   -0.6624    0.0000 C   0  0  0  0  0  0  0  0  0  0  0  0
    1.6531   -1.0749    0.0000 C   0  0  0  0  0  0  0  0  0  0  0  0
   -0.4903    0.1626    0.0000 C   0  0  0  0  0  0  0  0  0  0  0  0
    0.9386    0.1626    0.0000 C   0  0  0  0  0  0  0  0  0  0  0  0
   -1.2048   -0.2499    0.0000 C   0  0  0  0  0  0  0  0  0  0  0  0
   -1.9193    0.1626    0.0000 C   0  0  0  0  0  0  0  0  0  0  0  0
   -1.9193    0.9876    0.0000 C   0  0  0  0  0  0  0  0  0  0  0  0
   -1.2048    1.4001    0.0000 C   0  0  0  0  0  0  0  0  0  0  0  0
    6.6055    0.1626    0.0000 C   0  0  0  0  0  0  0  0  0  0  0  0
    6.6055   -1.4874    0.0000 C   0  0  0  0  0  0  0  0  0  0  0  0
    3.0820   -2.7249    0.0000 C   0  0  0  0  0  0  0  0  0  0  0  0
   -1.2048    2.2251    0.0000 C   0  0  0  0  0  0  0  0  0  0  0  0
  1 15  1  0
  1 17  1  0
  2 16  1  0
  2 21  1  0
  3 14  1  0
  3 32  1  0
 24  4  1  1
  4 25  1  0
  5 19  2  0
  6 24  1  0
  6 29  1  0
  7 22  1  0
 26  8  1  6
 27  9  1  1
 28 10  1  6
 11 33  1  0
 12 14  2  0
 12 15  1  0
 12 20  1  0
 13 14  1  0
 13 16  2  0
 13 19  1  0
 15 18  2  0
 16 18  1  0
 17 20  1  0
 17 22  1  6
 19 23  1  0
 21 23  2  0
 21 25  1  0
 22 30  1  0
 22 31  1  0
 24 26  1  0
 26 27  1  0
 27 28  1  0
 28 29  1  0
 29 33  1  1
M  END
> <chembl_id>
CHEMBL1734606

> <chembl_pref_name>
None

$$$$
CHEMBL4104740
     RDKit          2D

 40 42  0  0  0  0  0  0  0  0999 V2000
    4.0694  -10.9660    0.0000 O   0  0  0  0  0  0  0  0  0  0  0  0
    3.6650  -10.2603    0.0000 S   0  0  0  0  0  0  0  0  0  0  0  0
    3.2560  -10.9634    0.0000 O   0  0  0  0  0  0  0  0  0  0  0  0
   11.7420   -7.9202    0.0000 O   0  0  0  0  0  0  0  0  0  0  0  0
   12.1547   -8.6300    0.0000 S   0  0  0  0  0  0  0  0  0  0  0  0
   12.5631   -7.9177    0.0000 O   0  0  0  0  0  0  0  0  0  0  0  0
    7.2061   -9.0304    0.0000 C   0  0  0  0  0  0  0  0  0  0  0  0
    7.2061   -9.8476    0.0000 N   0  0  0  0  0  0  0  0  0  0  0  0
    7.9114  -10.2520    0.0000 C   0  0  0  0  0  0  0  0  0  0  0  0
    8.6167   -9.8476    0.0000 C   0  0  0  0  0  0  0  0  0  0  0  0
    8.6167   -9.0304    0.0000 N   0  0  0  0  0  0  0  0  0  0  0  0
    7.9114   -8.6177    0.0000 C   0  0  0  0  0  0  0  0  0  0  0  0
    9.3256   -8.6239    0.0000 C   0  0  0  0  0  0  0  0  0  0  0  0
   10.0321   -9.0345    0.0000 C   0  0  0  0  0  0  0  0  0  0  0  0
   10.7410   -8.6280    0.0000 C   0  0  0  0  0  0  0  0  0  0  0  0
   11.4475   -9.0387    0.0000 N   0  0  0  0  0  0  0  0  0  0  0  0
   12.8629   -9.0428    0.0000 C   0  0  0  0  0  0  0  0  0  0  0  0
   12.8553   -9.8610    0.0000 C   0  0  0  0  0  0  0  0  0  0  0  0
   13.5610  -10.2716    0.0000 C   0  0  0  0  0  0  0  0  0  0  0  0
   14.2709   -9.8650    0.0000 C   0  0  0  0  0  0  0  0  0  0  0  0
   14.2706   -9.0436    0.0000 C   0  0  0  0  0  0  0  0  0  0  0  0
   13.5644   -8.6367    0.0000 C   0  0  0  0  0  0  0  0  0  0  0  0
    6.4990  -10.2572    0.0000 C   0  0  0  0  0  0  0  0  0  0  0  0
    5.7907   -9.8496    0.0000 C   0  0  0  0  0  0  0  0  0  0  0  0
    5.0836  -10.2592    0.0000 C   0  0  0  0  0  0  0  0  0  0  0  0
    4.3753   -9.8517    0.0000 N   0  0  0  0  0  0  0  0  0  0  0  0
    2.9599   -9.8537    0.0000 C   0  0  0  0  0  0  0  0  0  0  0  0
    2.9580   -9.0375    0.0000 C   0  0  0  0  0  0  0  0  0  0  0  0
    2.2505   -8.6300    0.0000 C   0  0  0  0  0  0  0  0  0  0  0  0
    1.5447   -9.0397    0.0000 C   0  0  0  0  0  0  0  0  0  0  0  0
    1.5491   -9.8611    0.0000 C   0  0  0  0  0  0  0  0  0  0  0  0
    2.2543  -10.2649    0.0000 C   0  0  0  0  0  0  0  0  0  0  0  0
    0.8354   -8.6338    0.0000 C   0  0  0  0  0  0  0  0  0  0  0  0
    0.8323   -7.8166    0.0000 C   0  0  0  0  0  0  0  0  0  0  0  0
    0.1293   -9.0451    0.0000 C   0  0  0  0  0  0  0  0  0  0  0  0
    0.1238   -8.2214    0.0000 C   0  0  0  0  0  0  0  0  0  0  0  0
   14.9779  -10.2747    0.0000 C   0  0  0  0  0  0  0  0  0  0  0  0
   14.9766  -11.0919    0.0000 C   0  0  0  0  0  0  0  0  0  0  0  0
   15.6863   -9.8673    0.0000 C   0  0  0  0  0  0  0  0  0  0  0  0
   15.6835  -10.6813    0.0000 C   0  0  0  0  0  0  0  0  0  0  0  0
  2  1  2  0
  3  2  2  0
  5  4  2  0
  6  5  2  0
  7  8  1  0
  7 12  1  0
  8  9  1  0
  9 10  1  0
 10 11  1  0
 11 12  1  0
 11 13  1  0
 13 14  1  0
 14 15  1  0
 15 16  1  0
 16  5  1  0
  5 17  1  0
 17 18  2  0
 18 19  1  0
 19 20  2  0
 20 21  1  0
 21 22  2  0
 22 17  1  0
  8 23  1  0
 23 24  1  0
 24 25  1  0
 25 26  1  0
 26  2  1  0
  2 27  1  0
 27 28  2  0
 28 29  1  0
 29 30  2  0
 30 31  1  0
 31 32  2  0
 32 27  1  0
 30 33  1  0
 33 34  1  0
 33 35  1  0
 33 36  1  0
 20 37  1  0
 37 38  1  0
 37 39  1  0
 37 40  1  0
M  END
> <chembl_id>
CHEMBL4104740

> <chembl_pref_name>
None

$$$$
CHEMBL1491676
     RDKit          2D

 27 30  0  0  0  0  0  0  0  0999 V2000
   -3.9203    0.2634    0.0000 S   0  0  0  0  0  0  0  0  0  0  0  0
   -0.9923    0.4209    0.0000 S   0  0  0  0  0  0  0  0  0  0  0  0
   -2.4212   -2.0541    0.0000 O   0  0  0  0  0  0  0  0  0  0  0  0
    1.3299    1.4129    0.0000 O   0  0  0  0  0  0  0  0  0  0  0  0
   -1.6597   -2.5390    0.0000 O   0  0  0  0  0  0  0  0  0  0  0  0
   -1.7068   -0.8166    0.0000 N   0  0  0  0  0  0  0  0  0  0  0  0
   -2.4212    0.4209    0.0000 N   0  0  0  0  0  0  0  0  0  0  0  0
    1.7424    0.6985    0.0000 N   0  0  0  0  0  0  0  0  0  0  0  0
   -3.1357   -0.8166    0.0000 C   0  0  0  0  0  0  0  0  0  0  0  0
   -3.1357    0.0084    0.0000 C   0  0  0  0  0  0  0  0  0  0  0  0
   -2.4212   -1.2291    0.0000 C   0  0  0  0  0  0  0  0  0  0  0  0
   -1.7068    0.0084    0.0000 C   0  0  0  0  0  0  0  0  0  0  0  0
   -3.9203   -1.0715    0.0000 C   0  0  0  0  0  0  0  0  0  0  0  0
   -4.4053   -0.4041    0.0000 C   0  0  0  0  0  0  0  0  0  0  0  0
   -0.9923   -1.2291    0.0000 C   0  0  0  0  0  0  0  0  0  0  0  0
    0.4366    0.4209    0.0000 C   0  0  0  0  0  0  0  0  0  0  0  0
   -0.9923   -2.0541    0.0000 C   0  0  0  0  0  0  0  0  0  0  0  0
   -0.2778    0.0084    0.0000 C   0  0  0  0  0  0  0  0  0  0  0  0
    0.5229    1.2414    0.0000 C   0  0  0  0  0  0  0  0  0  0  0  0
    1.1903    0.0854    0.0000 C   0  0  0  0  0  0  0  0  0  0  0  0
   -5.2303   -0.4041    0.0000 C   0  0  0  0  0  0  0  0  0  0  0  0
   -0.3249   -2.5390    0.0000 C   0  0  0  0  0  0  0  0  0  0  0  0
   -1.4048   -3.3236    0.0000 C   0  0  0  0  0  0  0  0  0  0  0  0
   -0.5798   -3.3236    0.0000 C   0  0  0  0  0  0  0  0  0  0  0  0
   -0.0902    1.7935    0.0000 C   0  0  0  0  0  0  0  0  0  0  0  0
    1.3618   -0.7216    0.0000 C   0  0  0  0  0  0  0  0  0  0  0  0
   -5.6428   -1.1185    0.0000 C   0  0  0  0  0  0  0  0  0  0  0  0
  1 10  1  0
  1 14  1  0
  2 12  1  0
  2 18  1  0
  3 11  2  0
  4  8  1  0
  4 19  1  0
  5 17  1  0
  5 23  1  0
  6 11  1  0
  6 12  1  0
  6 15  1  0
  7 10  1  0
  7 12  2  0
  8 20  2  0
  9 10  2  0
  9 11  1  0
  9 13  1  0
 13 14  2  0
 14 21  1  0
 15 17  1  0
 16 18  1  0
 16 19  2  0
 16 20  1  0
 17 22  2  0
 19 25  1  0
 20 26  1  0
 21 27  1  0
 22 24  1  0
 23 24  2  0
M  END
> <chembl_id>
CHEMBL1491676

> <chembl_pref_name>
None

$$$$
CHEMBL1813735
     RDKit          2D

 61 65  0  0  0  0  0  0  0  0999 V2000
    4.6901   -2.0460    0.0000 O   0  0  0  0  0  0  0  0  0  0  0  0
    3.8940   -1.8335    0.0000 S   0  0  0  0  0  0  0  0  0  0  0  0
    4.1079   -2.6292    0.0000 O   0  0  0  0  0  0  0  0  0  0  0  0
    1.0556    1.4595    0.0000 O   0  0  0  0  0  0  0  0  0  0  0  0
    0.3410    1.8783    0.0000 C   0  0  0  0  0  0  0  0  0  0  0  0
   -1.0775    2.7091    0.0000 N   0  0  0  0  0  0  0  0  0  0  0  0
   -1.0786    1.8804    0.0000 C   0  0  0  0  0  0  0  0  0  0  0  0
   -0.3688    1.4703    0.0000 C   0  0  0  0  0  0  0  0  0  0  0  0
   -0.3639    3.1220    0.0000 C   0  0  0  0  0  0  0  0  0  0  0  0
    0.3467    2.7066    0.0000 C   0  0  0  0  0  0  0  0  0  0  0  0
    1.0565    3.1117    0.0000 C   0  0  0  0  0  0  0  0  0  0  0  0
    1.0627    3.9339    0.0000 C   0  0  0  0  0  0  0  0  0  0  0  0
    0.3455    4.3450    0.0000 C   0  0  0  0  0  0  0  0  0  0  0  0
   -0.3619    3.9386    0.0000 C   0  0  0  0  0  0  0  0  0  0  0  0
    0.3440    5.1702    0.0000 O   0  0  0  0  0  0  0  0  0  0  0  0
    1.0614    5.5841    0.0000 C   0  0  0  0  0  0  0  0  0  0  0  0
   -1.7947    1.4678    0.0000 C   0  0  0  0  0  0  0  0  0  0  0  0
   -2.5098    1.8840    0.0000 C   0  0  0  0  0  0  0  0  0  0  0  0
   -3.2253    1.4682    0.0000 C   0  0  0  0  0  0  0  0  0  0  0  0
   -3.2259    0.6457    0.0000 C   0  0  0  0  0  0  0  0  0  0  0  0
   -2.5063    0.2334    0.0000 C   0  0  0  0  0  0  0  0  0  0  0  0
   -1.7913    0.6444    0.0000 C   0  0  0  0  0  0  0  0  0  0  0  0
    1.0536    0.6342    0.0000 C   0  0  0  0  0  0  0  0  0  0  0  0
    0.3315    0.2301    0.0000 C   0  0  0  0  0  0  0  0  0  0  0  0
    0.3290   -0.5941    0.0000 C   0  0  0  0  0  0  0  0  0  0  0  0
    1.0428   -1.0091    0.0000 C   0  0  0  0  0  0  0  0  0  0  0  0
    1.7572   -0.5951    0.0000 C   0  0  0  0  0  0  0  0  0  0  0  0
    1.7585    0.2270    0.0000 C   0  0  0  0  0  0  0  0  0  0  0  0
    1.0383   -1.8344    0.0000 C   0  0  0  0  0  0  0  0  0  0  0  0
   -0.3934   -1.8371    0.0000 C   0  0  0  0  0  0  0  0  0  0  0  0
   -1.1076   -2.2458    0.0000 C   0  0  0  0  0  0  0  0  0  0  0  0
   -0.3890   -1.0118    0.0000 O   0  0  0  0  0  0  0  0  0  0  0  0
   -1.1120   -3.0711    0.0000 C   0  0  0  0  0  0  0  0  0  0  0  0
   -1.8262   -3.4840    0.0000 C   0  0  0  0  0  0  0  0  0  0  0  0
   -0.3982   -3.4876    0.0000 C   0  0  0  0  0  0  0  0  0  0  0  0
   -1.1185   -3.8978    0.0000 C   0  0  0  0  0  0  0  0  0  0  0  0
    1.7480   -2.2508    0.0000 C   0  0  0  0  0  0  0  0  0  0  0  0
    2.4663   -1.8379    0.0000 O   0  0  0  0  0  0  0  0  0  0  0  0
    2.4615   -3.4968    0.0000 C   0  0  0  0  0  0  0  0  0  0  0  0
    2.4570   -4.3221    0.0000 C   0  0  0  0  0  0  0  0  0  0  0  0
    3.1798   -3.0797    0.0000 C   0  0  0  0  0  0  0  0  0  0  0  0
    3.1750   -4.7385    0.0000 C   0  0  0  0  0  0  0  0  0  0  0  0
    3.1706   -5.5637    0.0000 C   0  0  0  0  0  0  0  0  0  0  0  0
    3.9024   -3.5015    0.0000 O   0  0  0  0  0  0  0  0  0  0  0  0
    3.8638   -1.0049    0.0000 C   0  0  0  0  0  0  0  0  0  0  0  0
    4.3622   -0.5056    0.0000 C   0  0  0  0  0  0  0  0  0  0  0  0
    3.8964    0.2780    0.0000 C   0  0  0  0  0  0  0  0  0  0  0  0
    2.1776    0.8683    0.0000 C   0  0  0  0  0  0  0  0  0  0  0  0
    2.9229    0.9007    0.0000 C   0  0  0  0  0  0  0  0  0  0  0  0
    3.2688    0.2797    0.0000 C   0  0  0  0  0  0  0  0  0  0  0  0
   -2.5350   -2.2440    0.0000 C   0  0  0  0  0  0  0  0  0  0  0  0
   -2.5338   -3.0666    0.0000 O   0  0  0  0  0  0  0  0  0  0  0  0
   -3.2543   -1.8294    0.0000 O   0  0  0  0  0  0  0  0  0  0  0  0
   -3.9743   -2.2406    0.0000 C   0  0  0  0  0  0  0  0  0  0  0  0
   -4.6881   -1.8268    0.0000 C   0  0  0  0  0  0  0  0  0  0  0  0
   -3.9757   -3.0612    0.0000 C   0  0  0  0  0  0  0  0  0  0  0  0
   -4.6840   -2.6601    0.0000 C   0  0  0  0  0  0  0  0  0  0  0  0
    3.1846   -2.2547    0.0000 N   0  0  0  0  0  0  0  0  0  0  0  0
   -1.8208   -1.8311    0.0000 N   0  0  0  0  0  0  0  0  0  0  0  0
    0.3232   -2.2459    0.0000 N   0  0  0  0  0  0  0  0  0  0  0  0
    1.7520   -3.0758    0.0000 N   0  0  0  0  0  0  0  0  0  0  0  0
  2  1  2  0
  3  2  2  0
  4  5  1  0
  5 10  2  0
  9  6  2  0
  6  7  1  0
  7  8  2  0
  8  5  1  0
  9 10  1  0
 10 11  1  0
 11 12  2  0
 12 13  1  0
 13 14  2  0
 14  9  1  0
 13 15  1  0
 15 16  1  0
  7 17  1  0
 17 18  2  0
 18 19  1  0
 19 20  2  0
 20 21  1  0
 21 22  2  0
 22 17  1  0
  4 23  1  0
 23 24  2  0
 24 25  1  0
 25 26  2  0
 26 27  1  0
 27 28  2  0
 28 23  1  0
 29 26  1  0
 30 31  1  0
 30 32  2  0
 31 33  1  6
 33 34  1  0
 33 35  1  0
 33 36  1  0
 29 37  1  0
 37 38  2  0
 39 40  1  6
 39 41  1  0
 40 42  1  0
 42 43  1  0
 41 44  2  0
  2 45  1  0
 45 46  1  0
 46 47  1  0
 28 48  1  0
 48 49  2  0
 49 50  1  0
 50 47  1  0
 51 52  2  0
 51 53  1  0
 53 54  1  0
 54 55  1  0
 54 56  1  0
 54 57  1  0
 41 58  1  0
  2 58  1  0
 31 59  1  0
 51 59  1  0
 29 60  1  1
 30 60  1  0
 37 61  1  0
 39 61  1  0
M  END
> <chembl_id>
CHEMBL1813735

> <chembl_pref_name>
None

$$$$
CHEMBL560392
     RDKit          2D

 24 26  0  0  0  0  0  0  0  0999 V2000
    1.7087   -0.1012    0.0000 C   0  0  0  0  0  0  0  0  0  0  0  0
    0.9942   -0.5137    0.0000 C   0  0  0  0  0  0  0  0  0  0  0  0
    0.2797   -0.1012    0.0000 C   0  0  0  0  0  0  0  0  0  0  0  0
    0.2797    0.7238    0.0000 C   0  0  0  0  0  0  0  0  0  0  0  0
    0.9942    1.1363    0.0000 C   0  0  0  0  0  0  0  0  0  0  0  0
    1.7087    0.7238    0.0000 C   0  0  0  0  0  0  0  0  0  0  0  0
    2.4231    1.1363    0.0000 C   0  0  0  0  0  0  0  0  0  0  0  0
    3.1376    0.7238    0.0000 N   0  0  0  0  0  0  0  0  0  0  0  0
    3.8521    1.1363    0.0000 C   0  0  0  0  0  0  0  0  0  0  0  0
    4.5666    0.7238    0.0000 C   0  0  0  0  0  0  0  0  0  0  0  0
    5.2810    1.1363    0.0000 O   0  0  0  0  0  0  0  0  0  0  0  0
    5.2810   -0.5137    0.0000 C   0  0  0  0  0  0  0  0  0  0  0  0
    4.5666   -0.1012    0.0000 C   0  0  0  0  0  0  0  0  0  0  0  0
    5.9955   -0.1012    0.0000 C   0  0  0  0  0  0  0  0  0  0  0  0
    5.9955    0.7238    0.0000 C   0  0  0  0  0  0  0  0  0  0  0  0
    6.7100    1.1363    0.0000 C   0  0  0  0  0  0  0  0  0  0  0  0
    7.4244    0.7238    0.0000 C   0  0  0  0  0  0  0  0  0  0  0  0
    7.4244   -0.1012    0.0000 C   0  0  0  0  0  0  0  0  0  0  0  0
    6.7100   -0.5137    0.0000 C   0  0  0  0  0  0  0  0  0  0  0  0
    5.2810   -1.3387    0.0000 O   0  0  0  0  0  0  0  0  0  0  0  0
    6.7100   -1.3387    0.0000 O   0  0  0  0  0  0  0  0  0  0  0  0
    8.1389   -0.5137    0.0000 O   0  0  0  0  0  0  0  0  0  0  0  0
   -0.4347    1.1363    0.0000 C   0  0  0  0  0  0  0  0  0  0  0  0
   -1.1492    1.5488    0.0000 N   0  0  0  0  0  0  0  0  0  0  0  0
  6  1  1  0
 10 13  2  0
 11 15  1  0
 14 12  1  0
 12 13  1  0
  1  2  2  0
  6  7  1  0
 14 15  2  0
  3  4  2  0
 15 16  1  0
  7  8  1  0
 16 17  2  0
 17 18  1  0
  8  9  1  0
 18 19  2  0
 19 14  1  0
  4  5  1  0
 12 20  2  0
  9 10  1  0
 19 21  1  0
 10 11  1  0
 18 22  1  0
  2  3  1  0
  5  6  2  0
 23 24  3  0
  4 23  1  0
M  END
> <chembl_id>
CHEMBL560392

> <chembl_pref_name>
None

$$$$
CHEMBL2011804
     RDKit          2D

 28 30  0  0  0  0  0  0  0  0999 V2000
   -0.9681    1.3709    0.0000 C   0  0  0  0  0  0  0  0  0  0  0  0
   -0.9693    0.5435    0.0000 C   0  0  0  0  0  0  0  0  0  0  0  0
   -0.2544    0.1306    0.0000 C   0  0  0  0  0  0  0  0  0  0  0  0
    0.4620    0.5440    0.0000 C   0  0  0  0  0  0  0  0  0  0  0  0
    0.4591    1.3745    0.0000 C   0  0  0  0  0  0  0  0  0  0  0  0
   -0.2562    1.7836    0.0000 C   0  0  0  0  0  0  0  0  0  0  0  0
    1.1721    1.7897    0.0000 N   0  0  0  0  0  0  0  0  0  0  0  0
    1.8881    1.3799    0.0000 C   0  0  0  0  0  0  0  0  0  0  0  0
    2.6010    1.7951    0.0000 N   0  0  0  0  0  0  0  0  0  0  0  0
    1.8912    0.5549    0.0000 O   0  0  0  0  0  0  0  0  0  0  0  0
    3.3170    1.3853    0.0000 C   0  0  0  0  0  0  0  0  0  0  0  0
    3.3170    0.5614    0.0000 C   0  0  0  0  0  0  0  0  0  0  0  0
    4.0322    0.1517    0.0000 C   0  0  0  0  0  0  0  0  0  0  0  0
    4.7461    0.5669    0.0000 C   0  0  0  0  0  0  0  0  0  0  0  0
    4.7403    1.3962    0.0000 C   0  0  0  0  0  0  0  0  0  0  0  0
    4.0245    1.8022    0.0000 C   0  0  0  0  0  0  0  0  0  0  0  0
    4.0177    2.6271    0.0000 C   0  0  0  0  0  0  0  0  0  0  0  0
   -1.6827    1.7832    0.0000 N   0  0  0  0  0  0  0  0  0  0  0  0
   -2.3970    1.3705    0.0000 C   0  0  0  0  0  0  0  0  0  0  0  0
   -3.1116    1.7829    0.0000 N   0  0  0  0  0  0  0  0  0  0  0  0
   -2.3968    0.5455    0.0000 O   0  0  0  0  0  0  0  0  0  0  0  0
   -3.8260    1.3702    0.0000 C   0  0  0  0  0  0  0  0  0  0  0  0
   -4.5400    1.7843    0.0000 C   0  0  0  0  0  0  0  0  0  0  0  0
   -5.2539    1.3723    0.0000 C   0  0  0  0  0  0  0  0  0  0  0  0
   -5.2542    0.5464    0.0000 C   0  0  0  0  0  0  0  0  0  0  0  0
   -4.5346    0.1343    0.0000 C   0  0  0  0  0  0  0  0  0  0  0  0
   -3.8236    0.5486    0.0000 C   0  0  0  0  0  0  0  0  0  0  0  0
   -4.5391    2.6093    0.0000 C   0  0  0  0  0  0  0  0  0  0  0  0
 13 14  2  0
  5  7  1  0
 14 15  1  0
  3  4  2  0
 15 16  2  0
 16 11  1  0
  7  8  1  0
 16 17  1  0
  1 18  1  0
  8  9  1  0
 18 19  1  0
  4  5  1  0
 19 20  1  0
  8 10  2  0
 19 21  2  0
  2  3  1  0
 20 22  1  0
  9 11  1  0
 22 23  2  0
  5  6  2  0
 23 24  1  0
 11 12  2  0
 24 25  2  0
  6  1  1  0
 25 26  1  0
 12 13  1  0
 26 27  2  0
 27 22  1  0
  1  2  2  0
 23 28  1  0
M  END
> <chembl_id>
CHEMBL2011804

> <chembl_pref_name>
None

$$$$
CHEMBL1563898
     RDKit          2D

 27 30  0  0  0  0  0  0  0  0999 V2000
   -0.3820   -2.2756    0.0000 O   0  0  0  0  0  0  0  0  0  0  0  0
    2.4759   -0.6256    0.0000 O   0  0  0  0  0  0  0  0  0  0  0  0
   -3.2398   -0.6256    0.0000 O   0  0  0  0  0  0  0  0  0  0  0  0
    2.4759   -2.2756    0.0000 O   0  0  0  0  0  0  0  0  0  0  0  0
   -3.2398   -2.2756    0.0000 O   0  0  0  0  0  0  0  0  0  0  0  0
    1.5319   -0.4681    0.0000 O   0  0  0  0  0  0  0  0  0  0  0  0
    1.7615    0.6119    0.0000 O   0  0  0  0  0  0  0  0  0  0  0  0
    1.0470    0.1994    0.0000 N   0  0  0  0  0  0  0  0  0  0  0  0
   -0.3820   -0.6256    0.0000 C   0  0  0  0  0  0  0  0  0  0  0  0
    0.3325   -1.0381    0.0000 C   0  0  0  0  0  0  0  0  0  0  0  0
   -1.0964   -1.0381    0.0000 C   0  0  0  0  0  0  0  0  0  0  0  0
    0.3325   -1.8631    0.0000 C   0  0  0  0  0  0  0  0  0  0  0  0
   -1.0964   -1.8631    0.0000 C   0  0  0  0  0  0  0  0  0  0  0  0
   -0.3820    0.1994    0.0000 C   0  0  0  0  0  0  0  0  0  0  0  0
    1.0470   -0.6256    0.0000 C   0  0  0  0  0  0  0  0  0  0  0  0
   -1.8109   -0.6256    0.0000 C   0  0  0  0  0  0  0  0  0  0  0  0
    0.3325    0.6119    0.0000 C   0  0  0  0  0  0  0  0  0  0  0  0
    1.0470   -2.2756    0.0000 C   0  0  0  0  0  0  0  0  0  0  0  0
   -1.8109   -2.2756    0.0000 C   0  0  0  0  0  0  0  0  0  0  0  0
    1.7615   -1.0381    0.0000 C   0  0  0  0  0  0  0  0  0  0  0  0
   -2.5254   -1.0381    0.0000 C   0  0  0  0  0  0  0  0  0  0  0  0
    1.7615   -1.8631    0.0000 C   0  0  0  0  0  0  0  0  0  0  0  0
   -2.5254   -1.8631    0.0000 C   0  0  0  0  0  0  0  0  0  0  0  0
   -1.0964    0.6119    0.0000 C   0  0  0  0  0  0  0  0  0  0  0  0
    0.3325    1.4369    0.0000 C   0  0  0  0  0  0  0  0  0  0  0  0
   -1.0964    1.4369    0.0000 C   0  0  0  0  0  0  0  0  0  0  0  0
   -0.3820    1.8494    0.0000 C   0  0  0  0  0  0  0  0  0  0  0  0
  1 12  1  0
  1 13  1  0
  2 20  1  0
  3 21  1  0
  4 22  2  0
  5 23  1  0
  6  8  1  0
  7  8  2  0
  8 17  1  0
  9 10  2  0
  9 11  1  0
  9 14  1  0
 10 12  1  0
 10 15  1  0
 11 13  2  0
 11 16  1  0
 12 18  2  0
 13 19  1  0
 14 17  1  0
 14 24  2  0
 15 20  2  0
 16 21  2  0
 17 25  2  0
 18 22  1  0
 19 23  2  0
 20 22  1  0
 21 23  1  0
 24 26  1  0
 25 27  1  0
 26 27  2  0
M  CHG  2   6  -1   8   1
M  END
> <chembl_id>
CHEMBL1563898

> <chembl_pref_name>
None

$$$$
CHEMBL1310699
     RDKit          2D

 28 32  0  0  0  0  0  0  0  0999 V2000
   -2.8071    0.3603    0.0000 O   0  0  0  0  0  0  0  0  0  0  0  0
   -2.1397    2.4952    0.0000 O   0  0  0  0  0  0  0  0  0  0  0  0
    2.2334   -0.8003    0.0000 O   0  0  0  0  0  0  0  0  0  0  0  0
   -0.6245    0.0247    0.0000 N   0  0  0  0  0  0  0  0  0  0  0  0
   -0.6245    1.6747    0.0000 N   0  0  0  0  0  0  0  0  0  0  0  0
    2.9479    0.4372    0.0000 N   0  0  0  0  0  0  0  0  0  0  0  0
   -1.3390    0.4372    0.0000 C   0  0  0  0  0  0  0  0  0  0  0  0
   -1.3390    1.2622    0.0000 C   0  0  0  0  0  0  0  0  0  0  0  0
    0.0900    0.4372    0.0000 C   0  0  0  0  0  0  0  0  0  0  0  0
    0.0900    1.2622    0.0000 C   0  0  0  0  0  0  0  0  0  0  0  0
   -2.0534    0.0247    0.0000 C   0  0  0  0  0  0  0  0  0  0  0  0
   -2.0534    1.6747    0.0000 C   0  0  0  0  0  0  0  0  0  0  0  0
    0.8044    0.0247    0.0000 C   0  0  0  0  0  0  0  0  0  0  0  0
    1.5189    0.4372    0.0000 C   0  0  0  0  0  0  0  0  0  0  0  0
    0.8044    1.6747    0.0000 C   0  0  0  0  0  0  0  0  0  0  0  0
    1.5189    1.2622    0.0000 C   0  0  0  0  0  0  0  0  0  0  0  0
   -2.1397   -0.7958    0.0000 C   0  0  0  0  0  0  0  0  0  0  0  0
    2.2334    0.0247    0.0000 C   0  0  0  0  0  0  0  0  0  0  0  0
   -2.8071    1.3392    0.0000 C   0  0  0  0  0  0  0  0  0  0  0  0
   -3.3592   -0.2528    0.0000 C   0  0  0  0  0  0  0  0  0  0  0  0
   -2.9467   -0.9673    0.0000 C   0  0  0  0  0  0  0  0  0  0  0  0
   -2.9467    2.6667    0.0000 C   0  0  0  0  0  0  0  0  0  0  0  0
   -3.3592    1.9523    0.0000 C   0  0  0  0  0  0  0  0  0  0  0  0
    3.6623    0.0247    0.0000 C   0  0  0  0  0  0  0  0  0  0  0  0
    4.4160    0.3603    0.0000 C   0  0  0  0  0  0  0  0  0  0  0  0
    3.7486   -0.7958    0.0000 C   0  0  0  0  0  0  0  0  0  0  0  0
    4.9680   -0.2528    0.0000 C   0  0  0  0  0  0  0  0  0  0  0  0
    4.5555   -0.9673    0.0000 C   0  0  0  0  0  0  0  0  0  0  0  0
  1 11  1  0
  1 20  1  0
  2 12  1  0
  2 22  1  0
  3 18  2  0
  4  7  2  0
  4  9  1  0
  5  8  2  0
  5 10  1  0
  6 18  1  0
  6 24  1  0
  7  8  1  0
  7 11  1  0
  8 12  1  0
  9 10  1  0
  9 13  2  0
 10 15  2  0
 11 17  2  0
 12 19  2  0
 13 14  1  0
 14 16  2  0
 14 18  1  0
 15 16  1  0
 17 21  1  0
 19 23  1  0
 20 21  2  0
 22 23  2  0
 24 25  1  0
 24 26  1  0
 25 27  1  0
 26 28  1  0
 27 28  1  0
M  END
> <chembl_id>
CHEMBL1310699

> <chembl_pref_name>
None

$$$$
CHEMBL51613
     RDKit          2D

 19 21  0  0  0  0  0  0  0  0999 V2000
    1.7000   -5.2750    0.0000 N   0  0  0  0  0  0  0  0  0  0  0  0
    2.2250   -4.9667    0.0000 C   0  0  0  0  0  0  0  0  0  0  0  0
    2.2167   -4.3667    0.0000 C   0  0  0  0  0  0  0  0  0  0  0  0
    1.1792   -4.9750    0.0000 C   0  0  0  0  0  0  0  0  0  0  0  0
    1.1792   -4.3750    0.0000 N   0  0  0  0  0  0  0  0  0  0  0  0
    1.7000   -4.0667    0.0000 C   0  0  0  0  0  0  0  0  0  0  0  0
    2.7917   -4.1792    0.0000 N   0  0  0  0  0  0  0  0  0  0  0  0
    2.8000   -5.1542    0.0000 N   0  0  0  0  0  0  0  0  0  0  0  0
    3.1500   -4.6625    0.0000 C   0  0  0  0  0  0  0  0  0  0  0  0
    0.6625   -5.2750    0.0000 N   0  0  0  0  0  0  0  0  0  0  0  0
   -0.3708   -4.0667    0.0000 C   0  0  0  0  0  0  0  0  0  0  0  0
    0.1417   -4.3750    0.0000 C   0  0  0  0  0  0  0  0  0  0  0  0
    1.6917   -3.4667    0.0000 O   0  0  0  0  0  0  0  0  0  0  0  0
    0.1417   -4.9750    0.0000 C   0  0  0  0  0  0  0  0  0  0  0  0
   -0.8958   -4.3667    0.0000 C   0  0  0  0  0  0  0  0  0  0  0  0
   -0.8958   -4.9750    0.0000 C   0  0  0  0  0  0  0  0  0  0  0  0
   -0.3708   -3.4667    0.0000 Cl  0  0  0  0  0  0  0  0  0  0  0  0
   -0.3708   -5.2750    0.0000 C   0  0  0  0  0  0  0  0  0  0  0  0
   -1.4125   -4.0667    0.0000 Cl  0  0  0  0  0  0  0  0  0  0  0  0
  2  1  1  0
  3  2  1  0
  4  1  2  0
  5  4  1  0
  6  5  1  0
  7  3  1  0
  8  2  2  0
  9  8  1  0
 10  4  1  0
 11 12  2  0
 12 14  1  0
 13  6  1  0
 14 10  1  0
 15 16  2  0
 16 18  1  0
 17 11  1  0
 18 14  2  0
 19 15  1  0
  6  3  2  0
  7  9  2  0
 15 11  1  0
M  END
> <chembl_id>
CHEMBL51613

> <chembl_pref_name>
None

$$$$
CHEMBL3983404
     RDKit          2D

 23 26  0  0  0  0  0  0  0  0999 V2000
   13.3826   -9.2452    0.0000 C   0  0  0  0  0  0  0  0  0  0  0  0
   14.0997   -9.6405    0.0000 C   0  0  0  0  0  0  0  0  0  0  0  0
   13.3660   -8.4283    0.0000 N   0  0  0  0  0  0  0  0  0  0  0  0
   14.7962   -9.2188    0.0000 N   0  0  0  0  0  0  0  0  0  0  0  0
   14.7838   -8.4018    0.0000 C   0  0  0  0  0  0  0  0  0  0  0  0
   14.0666   -8.0066    0.0000 C   0  0  0  0  0  0  0  0  0  0  0  0
   12.6861   -9.6669    0.0000 C   0  0  0  0  0  0  0  0  0  0  0  0
   11.9689   -9.2758    0.0000 O   0  0  0  0  0  0  0  0  0  0  0  0
   12.7026  -10.4838    0.0000 N   0  0  0  0  0  0  0  0  0  0  0  0
   12.0020  -10.9097    0.0000 N   0  0  0  0  0  0  0  0  0  0  0  0
   12.7481  -12.9388    0.0000 C   0  0  0  0  0  0  0  0  0  0  0  0
   12.0517  -13.3605    0.0000 N   0  0  0  0  0  0  0  0  0  0  0  0
   11.3345  -12.9652    0.0000 C   0  0  0  0  0  0  0  0  0  0  0  0
   11.3180  -12.1483    0.0000 C   0  0  0  0  0  0  0  0  0  0  0  0
   12.0186  -11.7266    0.0000 C   0  0  0  0  0  0  0  0  0  0  0  0
   12.7357  -12.1177    0.0000 N   0  0  0  0  0  0  0  0  0  0  0  0
   10.5374  -11.9090    0.0000 C   0  0  0  0  0  0  0  0  0  0  0  0
   10.0693  -12.5825    0.0000 C   0  0  0  0  0  0  0  0  0  0  0  0
   10.5611  -13.2352    0.0000 S   0  0  0  0  0  0  0  0  0  0  0  0
    9.2565  -12.5108    0.0000 C   0  0  0  0  0  0  0  0  0  0  0  0
    8.9078  -11.7738    0.0000 C   0  0  0  0  0  0  0  0  0  0  0  0
    9.3760  -11.1003    0.0000 C   0  0  0  0  0  0  0  0  0  0  0  0
   10.1888  -11.1721    0.0000 C   0  0  0  0  0  0  0  0  0  0  0  0
  1  2  1  0
  1  3  2  0
  2  4  2  0
  4  5  1  0
  5  6  2  0
  3  6  1  0
  7  8  2  0
  9 10  1  0
 11 12  1  0
 12 13  2  0
 13 14  1  0
 14 15  2  0
 15 16  1  0
 11 16  2  0
 17 18  2  0
 18 19  1  0
 20 21  1  0
 21 22  1  0
 22 23  1  0
 17 23  1  0
 18 20  1  0
 13 19  1  0
 14 17  1  0
 10 15  1  0
  7  9  1  0
  1  7  1  0
M  END
> <chembl_id>
CHEMBL3983404

> <chembl_pref_name>
None

$$$$
CHEMBL3120370
     RDKit          2D

 33 36  0  0  0  0  0  0  0  0999 V2000
   13.4327  -18.8944    0.0000 C   0  0  0  0  0  0  0  0  0  0  0  0
   13.4316  -19.7098    0.0000 C   0  0  0  0  0  0  0  0  0  0  0  0
   14.1437  -20.1188    0.0000 C   0  0  0  0  0  0  0  0  0  0  0  0
   14.1419  -18.4856    0.0000 C   0  0  0  0  0  0  0  0  0  0  0  0
   14.8464  -18.8908    0.0000 C   0  0  0  0  0  0  0  0  0  0  0  0
   14.8467  -19.7099    0.0000 C   0  0  0  0  0  0  0  0  0  0  0  0
   15.6255  -19.9599    0.0000 N   0  0  0  0  0  0  0  0  0  0  0  0
   16.1010  -19.3061    0.0000 C   0  0  0  0  0  0  0  0  0  0  0  0
   15.6251  -18.6404    0.0000 C   0  0  0  0  0  0  0  0  0  0  0  0
   15.8774  -17.8590    0.0000 C   0  0  0  0  0  0  0  0  0  0  0  0
   16.6726  -17.6888    0.0000 C   0  0  0  0  0  0  0  0  0  0  0  0
   16.9248  -16.9116    0.0000 O   0  0  0  0  0  0  0  0  0  0  0  0
   17.2196  -18.2959    0.0000 O   0  0  0  0  0  0  0  0  0  0  0  0
   15.8741  -20.7412    0.0000 C   0  0  0  0  0  0  0  0  0  0  0  0
   16.6730  -20.9152    0.0000 C   0  0  0  0  0  0  0  0  0  0  0  0
   16.9237  -21.6893    0.0000 C   0  0  0  0  0  0  0  0  0  0  0  0
   17.7187  -21.8626    0.0000 C   0  0  0  0  0  0  0  0  0  0  0  0
   18.2684  -21.2622    0.0000 C   0  0  0  0  0  0  0  0  0  0  0  0
   18.0159  -20.4809    0.0000 C   0  0  0  0  0  0  0  0  0  0  0  0
   17.2216  -20.3063    0.0000 C   0  0  0  0  0  0  0  0  0  0  0  0
   12.7213  -20.1181    0.0000 C   0  0  0  0  0  0  0  0  0  0  0  0
   12.0178  -19.7114    0.0000 C   0  0  0  0  0  0  0  0  0  0  0  0
   11.3061  -20.1188    0.0000 C   0  0  0  0  0  0  0  0  0  0  0  0
   11.3050  -20.9409    0.0000 C   0  0  0  0  0  0  0  0  0  0  0  0
   12.0174  -21.3499    0.0000 C   0  0  0  0  0  0  0  0  0  0  0  0
   12.7220  -20.9402    0.0000 C   0  0  0  0  0  0  0  0  0  0  0  0
   10.5994  -19.7084    0.0000 N   0  0  0  0  0  0  0  0  0  0  0  0
   12.0196  -22.1671    0.0000 N   0  0  0  0  0  0  0  0  0  0  0  0
   16.3751  -22.2949    0.0000 O   0  0  0  0  0  0  0  0  0  0  0  0
   15.5763  -22.1226    0.0000 C   0  0  0  0  0  0  0  0  0  0  0  0
   18.5685  -19.8737    0.0000 N   0  0  0  0  0  0  0  0  0  0  0  0
   18.3192  -19.0955    0.0000 O   0  0  0  0  0  0  0  0  0  0  0  0
   19.3671  -20.0470    0.0000 O   0  0  0  0  0  0  0  0  0  0  0  0
  1  2  2  0
  2  3  1  0
  3  6  2  0
  5  4  2  0
  4  1  1  0
  5  6  1  0
  6  7  1  0
  7  8  1  0
  8  9  2  0
  9  5  1  0
  9 10  1  0
 10 11  1  0
 11 12  2  0
 11 13  1  0
  7 14  1  0
 14 15  1  0
 15 16  2  0
 16 17  1  0
 17 18  2  0
 18 19  1  0
 19 20  2  0
 20 15  1  0
 21 22  2  0
 22 23  1  0
 23 24  2  0
 24 25  1  0
 25 26  2  0
 26 21  1  0
  2 21  1  0
 23 27  1  0
 25 28  1  0
 16 29  1  0
 29 30  1  0
 31 32  2  0
 31 33  1  0
 19 31  1  0
M  CHG  2  31   1  33  -1
M  END
> <chembl_id>
CHEMBL3120370

> <chembl_pref_name>
None

$$$$
CHEMBL522790
     RDKit          2D

 25 28  0  0  0  0  0  0  0  0999 V2000
    3.8043    1.2700    0.0000 C   0  0  0  0  0  0  0  0  0  0  0  0
    3.8031    0.4432    0.0000 C   0  0  0  0  0  0  0  0  0  0  0  0
    4.5175    0.0306    0.0000 C   0  0  0  0  0  0  0  0  0  0  0  0
    4.5157    1.6824    0.0000 C   0  0  0  0  0  0  0  0  0  0  0  0
    5.2305    1.2736    0.0000 C   0  0  0  0  0  0  0  0  0  0  0  0
    5.2293    0.4411    0.0000 C   0  0  0  0  0  0  0  0  0  0  0  0
    5.9457    0.0262    0.0000 N   0  0  0  0  0  0  0  0  0  0  0  0
    5.9481    1.6911    0.0000 C   0  0  0  0  0  0  0  0  0  0  0  0
    6.6691    1.2715    0.0000 C   0  0  0  0  0  0  0  0  0  0  0  0
    6.6678    0.4432    0.0000 C   0  0  0  0  0  0  0  0  0  0  0  0
    7.3834    0.0297    0.0000 C   0  0  0  0  0  0  0  0  0  0  0  0
    8.1008    0.4435    0.0000 C   0  0  0  0  0  0  0  0  0  0  0  0
    8.0980    1.2750    0.0000 C   0  0  0  0  0  0  0  0  0  0  0  0
    7.3819    1.6847    0.0000 C   0  0  0  0  0  0  0  0  0  0  0  0
    5.9482    2.5156    0.0000 O   0  0  0  0  0  0  0  0  0  0  0  0
    7.3831   -0.7947    0.0000 C   0  0  0  0  0  0  0  0  0  0  0  0
    6.6689   -1.2067    0.0000 O   0  0  0  0  0  0  0  0  0  0  0  0
    8.0969   -1.2072    0.0000 N   0  0  0  0  0  0  0  0  0  0  0  0
    8.0965   -2.0316    0.0000 C   0  0  0  0  0  0  0  0  0  0  0  0
    7.3824   -2.4379    0.0000 C   0  0  0  0  0  0  0  0  0  0  0  0
    7.3817   -3.2615    0.0000 C   0  0  0  0  0  0  0  0  0  0  0  0
    8.0960   -3.6749    0.0000 C   0  0  0  0  0  0  0  0  0  0  0  0
    8.8125   -3.2585    0.0000 C   0  0  0  0  0  0  0  0  0  0  0  0
    8.8097   -2.4362    0.0000 C   0  0  0  0  0  0  0  0  0  0  0  0
    6.6673   -3.6732    0.0000 C   0  0  0  0  0  0  0  0  0  0  0  0
 11 12  2  0
  2  3  1  0
 12 13  1  0
  3  6  2  0
 13 14  2  0
 14  9  1  0
  1  2  2  0
  8 15  2  0
  5  8  1  0
 11 16  1  0
  6  7  1  0
 16 17  2  0
  7 10  1  0
 16 18  1  0
  9  8  1  0
 18 19  1  0
  5  4  2  0
 19 20  2  0
  4  1  1  0
 20 21  1  0
  9 10  2  0
 21 22  2  0
  5  6  1  0
 22 23  1  0
 10 11  1  0
 23 24  2  0
 24 19  1  0
 21 25  1  0
M  END
> <chembl_id>
CHEMBL522790

> <chembl_pref_name>
None

$$$$
CHEMBL521010
     RDKit          2D

 23 26  0  0  0  0  0  0  0  0999 V2000
    4.5811   -6.8341    0.0000 C   0  0  0  0  0  0  0  0  0  0  0  0
    4.5799   -7.6606    0.0000 C   0  0  0  0  0  0  0  0  0  0  0  0
    5.2939   -8.0731    0.0000 C   0  0  0  0  0  0  0  0  0  0  0  0
    5.2921   -6.4219    0.0000 C   0  0  0  0  0  0  0  0  0  0  0  0
    6.0067   -6.8305    0.0000 C   0  0  0  0  0  0  0  0  0  0  0  0
    6.0055   -7.6627    0.0000 C   0  0  0  0  0  0  0  0  0  0  0  0
    6.7216   -8.0775    0.0000 N   0  0  0  0  0  0  0  0  0  0  0  0
    6.7240   -6.4132    0.0000 C   0  0  0  0  0  0  0  0  0  0  0  0
    7.4447   -6.8326    0.0000 C   0  0  0  0  0  0  0  0  0  0  0  0
    7.4435   -7.6606    0.0000 C   0  0  0  0  0  0  0  0  0  0  0  0
    8.1588   -8.0740    0.0000 C   0  0  0  0  0  0  0  0  0  0  0  0
    8.8758   -7.6603    0.0000 C   0  0  0  0  0  0  0  0  0  0  0  0
    8.8731   -6.8291    0.0000 C   0  0  0  0  0  0  0  0  0  0  0  0
    8.1572   -6.4196    0.0000 C   0  0  0  0  0  0  0  0  0  0  0  0
    6.7240   -5.5891    0.0000 O   0  0  0  0  0  0  0  0  0  0  0  0
    8.1584   -8.8981    0.0000 C   0  0  0  0  0  0  0  0  0  0  0  0
    7.4445   -9.3098    0.0000 O   0  0  0  0  0  0  0  0  0  0  0  0
    8.8719   -9.3103    0.0000 N   0  0  0  0  0  0  0  0  0  0  0  0
    8.8669  -10.1311    0.0000 C   0  0  0  0  0  0  0  0  0  0  0  0
    9.5763  -10.5434    0.0000 C   0  0  0  0  0  0  0  0  0  0  0  0
   10.2926  -10.1351    0.0000 C   0  0  0  0  0  0  0  0  0  0  0  0
   10.2949   -9.3101    0.0000 C   0  0  0  0  0  0  0  0  0  0  0  0
    9.5810   -8.8933    0.0000 C   0  0  0  0  0  0  0  0  0  0  0  0
 10 11  1  0
 11 12  2  0
  2  3  1  0
 12 13  1  0
  3  6  2  0
 13 14  2  0
 14  9  1  0
  1  2  2  0
  8 15  2  0
  5  8  1  0
 11 16  1  0
  6  7  1  0
 16 17  2  0
  7 10  1  0
 16 18  1  0
 18 19  1  0
  9  8  1  0
  5  4  2  0
  4  1  1  0
  9 10  2  0
  5  6  1  0
 18 23  1  0
 19 20  1  0
 20 21  1  0
 21 22  1  0
 22 23  1  0
M  END
> <chembl_id>
CHEMBL521010

> <chembl_pref_name>
None

$$$$
CHEMBL63354
     RDKit          2D

 40 45  0  0  0  0  0  0  0  0999 V2000
    6.0292   -6.8625    0.0000 C   0  0  0  0  0  0  0  0  0  0  0  0
    6.0292   -7.6917    0.0000 C   0  0  0  0  0  0  0  0  0  0  0  0
    5.3167   -6.4542    0.0000 C   0  0  0  0  0  0  0  0  0  0  0  0
    6.7417   -6.4500    0.0000 O   0  0  0  0  0  0  0  0  0  0  0  0
    2.4750   -3.1375    0.0000 C   0  0  0  0  0  0  0  0  0  0  0  0
    6.7417   -8.1042    0.0000 C   0  0  0  0  0  0  0  0  0  0  0  0
    2.4542   -3.9667    0.0000 C   0  0  0  0  0  0  0  0  0  0  0  0
    5.3125   -5.6292    0.0000 C   0  0  0  0  0  0  0  0  0  0  0  0
    7.4625   -6.8667    0.0000 C   0  0  0  0  0  0  0  0  0  0  0  0
    3.8875   -3.9875    0.0000 C   0  0  0  0  0  0  0  0  0  0  0  0
    7.4542   -7.6917    0.0000 C   0  0  0  0  0  0  0  0  0  0  0  0
    3.1625   -4.3917    0.0000 C   0  0  0  0  0  0  0  0  0  0  0  0
    3.2000   -2.7417    0.0000 C   0  0  0  0  0  0  0  0  0  0  0  0
    3.9000   -3.1667    0.0000 O   0  0  0  0  0  0  0  0  0  0  0  0
    5.3167   -8.1042    0.0000 C   0  0  0  0  0  0  0  0  0  0  0  0
    4.6042   -6.8667    0.0000 C   0  0  0  0  0  0  0  0  0  0  0  0
    1.7667   -2.7125    0.0000 C   0  0  0  0  0  0  0  0  0  0  0  0
    4.6042   -7.6917    0.0000 C   0  0  0  0  0  0  0  0  0  0  0  0
    4.6000   -5.2250    0.0000 C   0  0  0  0  0  0  0  0  0  0  0  0
    4.6000   -4.4000    0.0000 C   0  0  0  0  0  0  0  0  0  0  0  0
    3.2167   -1.9125    0.0000 C   0  0  0  0  0  0  0  0  0  0  0  0
    1.7792   -1.8875    0.0000 C   0  0  0  0  0  0  0  0  0  0  0  0
    8.1750   -6.4542    0.0000 C   0  0  0  0  0  0  0  0  0  0  0  0
    6.0292   -5.2167    0.0000 C   0  0  0  0  0  0  0  0  0  0  0  0
    2.5042   -1.4875    0.0000 C   0  0  0  0  0  0  0  0  0  0  0  0
    6.7375   -8.9292    0.0000 O   0  0  0  0  0  0  0  0  0  0  0  0
    1.7292   -4.3625    0.0000 O   0  0  0  0  0  0  0  0  0  0  0  0
    5.3167   -3.9875    0.0000 C   0  0  0  0  0  0  0  0  0  0  0  0
    6.0292   -4.4000    0.0000 C   0  0  0  0  0  0  0  0  0  0  0  0
    8.1792   -5.6375    0.0000 C   0  0  0  0  0  0  0  0  0  0  0  0
    8.8917   -6.8750    0.0000 C   0  0  0  0  0  0  0  0  0  0  0  0
    5.3167   -8.9292    0.0000 O   0  0  0  0  0  0  0  0  0  0  0  0
    3.8875   -6.4542    0.0000 O   0  0  0  0  0  0  0  0  0  0  0  0
    1.0417   -3.1125    0.0000 O   0  0  0  0  0  0  0  0  0  0  0  0
    9.6125   -5.6417    0.0000 C   0  0  0  0  0  0  0  0  0  0  0  0
    9.6042   -6.4667    0.0000 C   0  0  0  0  0  0  0  0  0  0  0  0
    8.9000   -5.2292    0.0000 C   0  0  0  0  0  0  0  0  0  0  0  0
    6.7417   -5.6292    0.0000 O   0  0  0  0  0  0  0  0  0  0  0  0
    2.5167   -0.6542    0.0000 O   0  0  0  0  0  0  0  0  0  0  0  0
   10.3292   -5.2375    0.0000 O   0  0  0  0  0  0  0  0  0  0  0  0
  2  1  1  0
  3  1  2  0
  4  1  1  0
  5 13  2  0
  6  2  1  0
  7 12  1  0
  8  3  1  0
  9  4  1  0
 10 20  1  0
 11  9  2  0
 12 10  2  0
 13 14  1  0
 14 10  1  0
 15  2  2  0
 16  3  1  0
 17  5  1  0
 18 16  2  0
 19  8  1  0
 20 19  2  0
 21 13  1  0
 22 25  1  0
 23  9  1  0
 24  8  2  0
 25 21  2  0
 26  6  2  0
 27  7  2  0
 28 29  2  0
 29 24  1  0
 30 23  1  0
 31 23  2  0
 32 15  1  0
 33 16  1  0
 34 17  1  0
 35 36  2  0
 36 31  1  0
 37 30  2  0
 38 24  1  0
 39 25  1  0
 40 35  1  0
  6 11  1  0
 15 18  1  0
 37 35  1  0
 20 28  1  0
  5  7  1  0
 22 17  2  0
M  END
> <chembl_id>
CHEMBL63354

> <chembl_pref_name>
AMENTOFLAVONE

$$$$
CHEMBL4175014
     RDKit          2D

 41 45  0  0  0  0  0  0  0  0999 V2000
   20.1633  -15.3017    0.0000 N   0  0  0  0  0  0  0  0  0  0  0  0
   19.4542  -14.8931    0.0000 C   0  0  0  0  0  0  0  0  0  0  0  0
   19.4542  -14.0759    0.0000 C   0  0  0  0  0  0  0  0  0  0  0  0
   20.1633  -13.6673    0.0000 C   0  0  0  0  0  0  0  0  0  0  0  0
   20.8683  -14.0759    0.0000 C   0  0  0  0  0  0  0  0  0  0  0  0
   21.5774  -13.6673    0.0000 C   0  0  0  0  0  0  0  0  0  0  0  0
   22.2864  -14.0759    0.0000 C   0  0  0  0  0  0  0  0  0  0  0  0
   22.2864  -14.8931    0.0000 C   0  0  0  0  0  0  0  0  0  0  0  0
   21.5774  -15.3017    0.0000 C   0  0  0  0  0  0  0  0  0  0  0  0
   20.8683  -14.8931    0.0000 C   0  0  0  0  0  0  0  0  0  0  0  0
   18.7493  -15.3017    0.0000 C   0  0  0  0  0  0  0  0  0  0  0  0
   18.7493  -16.1189    0.0000 C   0  0  0  0  0  0  0  0  0  0  0  0
   18.0402  -16.5275    0.0000 C   0  0  0  0  0  0  0  0  0  0  0  0
   17.3311  -16.1189    0.0000 C   0  0  0  0  0  0  0  0  0  0  0  0
   17.3311  -15.3017    0.0000 C   0  0  0  0  0  0  0  0  0  0  0  0
   18.0402  -14.8931    0.0000 C   0  0  0  0  0  0  0  0  0  0  0  0
   16.6220  -16.5275    0.0000 O   0  0  0  0  0  0  0  0  0  0  0  0
   16.6220  -17.3447    0.0000 C   0  0  0  0  0  0  0  0  0  0  0  0
   17.3311  -17.7533    0.0000 C   0  0  0  0  0  0  0  0  0  0  0  0
   17.3311  -18.5705    0.0000 C   0  0  0  0  0  0  0  0  0  0  0  0
   22.9955  -15.3017    0.0000 O   0  0  0  0  0  0  0  0  0  0  0  0
   23.7005  -14.8931    0.0000 C   0  0  0  0  0  0  0  0  0  0  0  0
   21.5774  -12.8501    0.0000 O   0  0  0  0  0  0  0  0  0  0  0  0
   22.2864  -12.4415    0.0000 C   0  0  0  0  0  0  0  0  0  0  0  0
   20.1633  -12.8501    0.0000 O   0  0  0  0  0  0  0  0  0  0  0  0
   19.4542  -12.4415    0.0000 C   0  0  0  0  0  0  0  0  0  0  0  0
   19.4542  -11.6243    0.0000 C   0  0  0  0  0  0  0  0  0  0  0  0
   18.7493  -10.3986    0.0000 C   0  0  0  0  0  0  0  0  0  0  0  0
   18.7493  -11.2157    0.0000 N   0  0  0  0  0  0  0  0  0  0  0  0
   18.0402  -11.6243    0.0000 C   0  0  0  0  0  0  0  0  0  0  0  0
   17.3311  -11.2157    0.0000 C   0  0  0  0  0  0  0  0  0  0  0  0
   17.3311  -10.3986    0.0000 C   0  0  0  0  0  0  0  0  0  0  0  0
   16.6220   -9.9900    0.0000 C   0  0  0  0  0  0  0  0  0  0  0  0
   16.6220   -9.1728    0.0000 C   0  0  0  0  0  0  0  0  0  0  0  0
   17.3311   -8.7642    0.0000 C   0  0  0  0  0  0  0  0  0  0  0  0
   18.0402   -9.1728    0.0000 C   0  0  0  0  0  0  0  0  0  0  0  0
   18.0402   -9.9900    0.0000 C   0  0  0  0  0  0  0  0  0  0  0  0
   17.3311   -7.9470    0.0000 O   0  0  0  0  0  0  0  0  0  0  0  0
   16.6220   -7.5384    0.0000 C   0  0  0  0  0  0  0  0  0  0  0  0
   15.9170   -8.7642    0.0000 O   0  0  0  0  0  0  0  0  0  0  0  0
   15.9170   -7.9470    0.0000 C   0  0  0  0  0  0  0  0  0  0  0  0
  1  2  2  0
  2  3  1  0
  3  4  2  0
  4  5  1  0
  5  6  2  0
  6  7  1  0
  7  8  2  0
  8  9  1  0
  9 10  2  0
  1 10  1  0
  5 10  1  0
 11 12  1  0
 12 13  2  0
 13 14  1  0
 14 15  2  0
 15 16  1  0
 11 16  2  0
 18 19  1  0
 19 20  1  0
 17 18  1  0
 14 17  1  0
  2 11  1  0
 21 22  1  0
  8 21  1  0
 23 24  1  0
  6 23  1  0
 26 27  1  0
 25 26  1  0
 28 29  1  0
 29 30  1  0
 30 31  1  0
 31 32  1  0
 32 33  1  0
 33 34  2  0
 34 35  1  0
 35 36  2  0
 36 37  1  0
 28 37  1  0
 32 37  2  0
 38 39  1  0
 35 38  1  0
 40 41  1  0
 34 40  1  0
 27 29  1  0
  4 25  1  0
M  END
> <chembl_id>
CHEMBL4175014

> <chembl_pref_name>
None

$$$$
CHEMBL4573145
     RDKit          2D

 18 20  0  0  0  0  0  0  0  0999 V2000
   38.6915   -5.0787    0.0000 S   0  0  0  0  0  0  0  0  0  0  0  0
   39.1904   -4.4313    0.0000 C   0  0  0  0  0  0  0  0  0  0  0  0
   38.7262   -3.7556    0.0000 N   0  0  0  0  0  0  0  0  0  0  0  0
   37.9211   -4.8061    0.0000 C   0  0  0  0  0  0  0  0  0  0  0  0
   37.9443   -3.9915    0.0000 C   0  0  0  0  0  0  0  0  0  0  0  0
   37.2515   -3.5659    0.0000 C   0  0  0  0  0  0  0  0  0  0  0  0
   36.5351   -3.9538    0.0000 N   0  0  0  0  0  0  0  0  0  0  0  0
   36.5157   -4.7716    0.0000 C   0  0  0  0  0  0  0  0  0  0  0  0
   37.2092   -5.1936    0.0000 C   0  0  0  0  0  0  0  0  0  0  0  0
   40.0041   -4.4549    0.0000 C   0  0  0  0  0  0  0  0  0  0  0  0
   40.3926   -5.1751    0.0000 C   0  0  0  0  0  0  0  0  0  0  0  0
   41.2087   -5.1977    0.0000 C   0  0  0  0  0  0  0  0  0  0  0  0
   41.6373   -4.5009    0.0000 C   0  0  0  0  0  0  0  0  0  0  0  0
   41.2438   -3.7798    0.0000 C   0  0  0  0  0  0  0  0  0  0  0  0
   40.4289   -3.7608    0.0000 C   0  0  0  0  0  0  0  0  0  0  0  0
   40.0378   -3.0433    0.0000 O   0  0  0  0  0  0  0  0  0  0  0  0
   40.4636   -2.3458    0.0000 C   0  0  0  0  0  0  0  0  0  0  0  0
   40.0725   -1.6283    0.0000 C   0  0  0  0  0  0  0  0  0  0  0  0
  4  1  1  0
  1  2  1  0
  2  3  2  0
  3  5  1  0
  4  5  2  0
  5  6  1  0
  6  7  2  0
  7  8  1  0
  8  9  2  0
  9  4  1  0
 10 11  2  0
 11 12  1  0
 12 13  2  0
 13 14  1  0
 14 15  2  0
 15 10  1  0
  2 10  1  0
 15 16  1  0
 16 17  1  0
 17 18  1  0
M  END
> <chembl_id>
CHEMBL4573145

> <chembl_pref_name>
None

$$$$
CHEMBL1425797
     RDKit          2D

 33 36  0  0  0  0  0  0  0  0999 V2000
   -2.2965    2.0926    0.0000 O   0  0  0  0  0  0  0  0  0  0  0  0
   -3.1939    0.5382    0.0000 O   0  0  0  0  0  0  0  0  0  0  0  0
   -1.3798   -1.3477    0.0000 O   0  0  0  0  0  0  0  0  0  0  0  0
   -3.4450   -0.5656    0.0000 O   0  0  0  0  0  0  0  0  0  0  0  0
    0.6786    2.2624    0.0000 O   0  0  0  0  0  0  0  0  0  0  0  0
    1.7902   -1.3031    0.0000 O   0  0  0  0  0  0  0  0  0  0  0  0
   -1.1539    1.1674    0.0000 N   0  0  0  0  0  0  0  0  0  0  0  0
    0.2661    1.5479    0.0000 N   0  0  0  0  0  0  0  0  0  0  0  0
   -1.0677    0.3469    0.0000 C   0  0  0  0  0  0  0  0  0  0  0  0
   -1.8214    0.0113    0.0000 C   0  0  0  0  0  0  0  0  0  0  0  0
   -1.9609    1.3389    0.0000 C   0  0  0  0  0  0  0  0  0  0  0  0
   -2.3734    0.6244    0.0000 C   0  0  0  0  0  0  0  0  0  0  0  0
   -0.5408    1.7194    0.0000 C   0  0  0  0  0  0  0  0  0  0  0  0
   -0.3532   -0.0656    0.0000 C   0  0  0  0  0  0  0  0  0  0  0  0
   -1.9929   -0.7956    0.0000 C   0  0  0  0  0  0  0  0  0  0  0  0
   -2.7775   -1.0506    0.0000 C   0  0  0  0  0  0  0  0  0  0  0  0
   -0.6271    2.5399    0.0000 C   0  0  0  0  0  0  0  0  0  0  0  0
    0.3612    0.3469    0.0000 C   0  0  0  0  0  0  0  0  0  0  0  0
   -0.3532   -0.8906    0.0000 C   0  0  0  0  0  0  0  0  0  0  0  0
    0.1266    2.8755    0.0000 C   0  0  0  0  0  0  0  0  0  0  0  0
   -3.0325   -1.8352    0.0000 C   0  0  0  0  0  0  0  0  0  0  0  0
    1.0757   -0.0656    0.0000 C   0  0  0  0  0  0  0  0  0  0  0  0
    0.3612   -1.3031    0.0000 C   0  0  0  0  0  0  0  0  0  0  0  0
    1.0757   -0.8906    0.0000 C   0  0  0  0  0  0  0  0  0  0  0  0
   -4.1124   -1.0506    0.0000 C   0  0  0  0  0  0  0  0  0  0  0  0
   -3.8575   -1.8352    0.0000 C   0  0  0  0  0  0  0  0  0  0  0  0
    0.2981    3.6824    0.0000 C   0  0  0  0  0  0  0  0  0  0  0  0
   -4.8970   -0.7956    0.0000 C   0  0  0  0  0  0  0  0  0  0  0  0
    2.5047   -0.8906    0.0000 C   0  0  0  0  0  0  0  0  0  0  0  0
    3.2191   -1.3031    0.0000 C   0  0  0  0  0  0  0  0  0  0  0  0
    3.9336   -0.8906    0.0000 C   0  0  0  0  0  0  0  0  0  0  0  0
    4.6481   -1.3031    0.0000 C   0  0  0  0  0  0  0  0  0  0  0  0
    5.3625   -0.8906    0.0000 C   0  0  0  0  0  0  0  0  0  0  0  0
  1 11  2  0
  2 12  1  0
  3 15  2  0
  4 16  1  0
  4 25  1  0
  5  8  1  0
  5 20  1  0
  6 24  1  0
  6 29  1  0
  7  9  1  0
  7 11  1  0
  7 13  1  0
  8 13  2  0
  9 10  1  0
  9 14  1  0
 10 12  2  0
 10 15  1  0
 11 12  1  0
 13 17  1  0
 14 18  2  0
 14 19  1  0
 15 16  1  0
 16 21  2  0
 17 20  2  0
 18 22  1  0
 19 23  2  0
 20 27  1  0
 21 26  1  0
 22 24  2  0
 23 24  1  0
 25 26  2  0
 25 28  1  0
 29 30  1  0
 30 31  1  0
 31 32  1  0
 32 33  1  0
M  END
> <chembl_id>
CHEMBL1425797

> <chembl_pref_name>
None

$$$$
CHEMBL1469579
     RDKit          2D

 21 22  0  0  0  0  0  0  0  0999 V2000
    1.0875    0.5922    0.0000 O   0  0  0  0  0  0  0  0  0  0  0  0
    3.0752    1.8727    0.0000 O   0  0  0  0  0  0  0  0  0  0  0  0
   -0.3849    1.0464    0.0000 O   0  0  0  0  0  0  0  0  0  0  0  0
    1.6462    1.8727    0.0000 C   0  0  0  0  0  0  0  0  0  0  0  0
    0.9646    1.4080    0.0000 C   0  0  0  0  0  0  0  0  0  0  0  0
    2.3607    1.4602    0.0000 C   0  0  0  0  0  0  0  0  0  0  0  0
    0.1762    1.6511    0.0000 C   0  0  0  0  0  0  0  0  0  0  0  0
    1.7079    2.6954    0.0000 C   0  0  0  0  0  0  0  0  0  0  0  0
    3.0752   -0.6023    0.0000 C   0  0  0  0  0  0  0  0  0  0  0  0
    2.3607    0.6352    0.0000 C   0  0  0  0  0  0  0  0  0  0  0  0
    3.7896   -1.8398    0.0000 C   0  0  0  0  0  0  0  0  0  0  0  0
    3.0752    0.2227    0.0000 C   0  0  0  0  0  0  0  0  0  0  0  0
    3.7896   -1.0148    0.0000 C   0  0  0  0  0  0  0  0  0  0  0  0
   -0.1252    2.4191    0.0000 C   0  0  0  0  0  0  0  0  0  0  0  0
    3.0752   -2.2523    0.0000 C   0  0  0  0  0  0  0  0  0  0  0  0
    2.3607   -1.0148    0.0000 C   0  0  0  0  0  0  0  0  0  0  0  0
    1.1031    3.2565    0.0000 C   0  0  0  0  0  0  0  0  0  0  0  0
    2.3607   -1.8398    0.0000 C   0  0  0  0  0  0  0  0  0  0  0  0
    0.2873    3.1336    0.0000 C   0  0  0  0  0  0  0  0  0  0  0  0
    4.5041   -2.2523    0.0000 C   0  0  0  0  0  0  0  0  0  0  0  0
    3.0752   -3.0773    0.0000 C   0  0  0  0  0  0  0  0  0  0  0  0
  1  5  1  0
  2  6  2  0
  3  7  2  0
  4  5  2  0
  4  6  1  0
  4  8  1  0
  5  7  1  0
  6 10  1  0
  7 14  1  0
  8 17  2  0
  9 12  1  0
  9 13  1  0
  9 16  2  0
 10 12  2  0
 11 13  2  0
 11 15  1  0
 11 20  1  0
 14 19  2  0
 15 18  2  0
 15 21  1  0
 16 18  1  0
 17 19  1  0
M  END
> <chembl_id>
CHEMBL1469579

> <chembl_pref_name>
None

$$$$
CHEMBL1458120
     RDKit          2D

 32 35  0  0  0  0  0  0  0  0999 V2000
   -0.9015    2.6388    0.0000 O   0  0  0  0  0  0  0  0  0  0  0  0
    0.8542    2.2656    0.0000 O   0  0  0  0  0  0  0  0  0  0  0  0
   -2.0289    2.5364    0.0000 O   0  0  0  0  0  0  0  0  0  0  0  0
   -2.1344    0.3307    0.0000 O   0  0  0  0  0  0  0  0  0  0  0  0
    2.5099    0.5575    0.0000 O   0  0  0  0  0  0  0  0  0  0  0  0
   -1.1125   -2.6704    0.0000 O   0  0  0  0  0  0  0  0  0  0  0  0
    0.3273    0.8931    0.0000 N   0  0  0  0  0  0  0  0  0  0  0  0
   -0.4264    0.5575    0.0000 C   0  0  0  0  0  0  0  0  0  0  0  0
   -0.9784    1.1706    0.0000 C   0  0  0  0  0  0  0  0  0  0  0  0
   -0.5659    1.8851    0.0000 C   0  0  0  0  0  0  0  0  0  0  0  0
    0.2411    1.7136    0.0000 C   0  0  0  0  0  0  0  0  0  0  0  0
   -1.7989    1.0844    0.0000 C   0  0  0  0  0  0  0  0  0  0  0  0
   -0.5979   -0.2494    0.0000 C   0  0  0  0  0  0  0  0  0  0  0  0
   -2.2838    1.7518    0.0000 C   0  0  0  0  0  0  0  0  0  0  0  0
    1.0418    0.4806    0.0000 C   0  0  0  0  0  0  0  0  0  0  0  0
    0.0152   -0.8015    0.0000 C   0  0  0  0  0  0  0  0  0  0  0  0
   -1.3825   -0.5044    0.0000 C   0  0  0  0  0  0  0  0  0  0  0  0
    1.7562    0.8931    0.0000 C   0  0  0  0  0  0  0  0  0  0  0  0
   -3.1088    1.7518    0.0000 C   0  0  0  0  0  0  0  0  0  0  0  0
   -2.6963    3.0214    0.0000 C   0  0  0  0  0  0  0  0  0  0  0  0
   -0.1563   -1.6084    0.0000 C   0  0  0  0  0  0  0  0  0  0  0  0
   -1.5540   -1.3114    0.0000 C   0  0  0  0  0  0  0  0  0  0  0  0
   -0.9410   -1.8634    0.0000 C   0  0  0  0  0  0  0  0  0  0  0  0
   -3.3637    2.5364    0.0000 C   0  0  0  0  0  0  0  0  0  0  0  0
    1.8425    1.7136    0.0000 C   0  0  0  0  0  0  0  0  0  0  0  0
    3.0620    1.1706    0.0000 C   0  0  0  0  0  0  0  0  0  0  0  0
    2.6495    1.8851    0.0000 C   0  0  0  0  0  0  0  0  0  0  0  0
   -2.6963    3.8464    0.0000 C   0  0  0  0  0  0  0  0  0  0  0  0
   -1.8971   -2.9253    0.0000 C   0  0  0  0  0  0  0  0  0  0  0  0
   -2.0686   -3.7323    0.0000 C   0  0  0  0  0  0  0  0  0  0  0  0
   -2.8533   -3.9872    0.0000 C   0  0  0  0  0  0  0  0  0  0  0  0
   -3.0248   -4.7942    0.0000 C   0  0  0  0  0  0  0  0  0  0  0  0
  1 10  1  0
  2 11  2  0
  3 14  1  0
  3 20  1  0
  4 12  2  0
  5 18  1  0
  5 26  1  0
  6 23  1  0
  6 29  1  0
  7  8  1  0
  7 11  1  0
  7 15  1  0
  8  9  1  0
  8 13  1  0
  9 10  2  0
  9 12  1  0
 10 11  1  0
 12 14  1  0
 13 16  2  0
 13 17  1  0
 14 19  2  0
 15 18  1  0
 16 21  1  0
 17 22  2  0
 18 25  2  0
 19 24  1  0
 20 24  2  0
 20 28  1  0
 21 23  2  0
 22 23  1  0
 25 27  1  0
 26 27  2  0
 29 30  1  0
 30 31  1  0
 31 32  1  0
M  END
> <chembl_id>
CHEMBL1458120

> <chembl_pref_name>
None

$$$$
CHEMBL275938
     RDKit          2D

 31 33  0  0  0  0  0  0  0  0999 V2000
    9.6069  -11.1791    0.0000 C   0  0  0  0  0  0  0  0  0  0  0  0
    9.6057  -12.0065    0.0000 C   0  0  0  0  0  0  0  0  0  0  0  0
   10.3206  -12.4194    0.0000 C   0  0  0  0  0  0  0  0  0  0  0  0
   11.0370  -12.0060    0.0000 C   0  0  0  0  0  0  0  0  0  0  0  0
   11.0341  -11.1755    0.0000 C   0  0  0  0  0  0  0  0  0  0  0  0
   10.3188  -10.7664    0.0000 C   0  0  0  0  0  0  0  0  0  0  0  0
   11.7471  -10.7603    0.0000 C   0  0  0  0  0  0  0  0  0  0  0  0
   12.4631  -11.1701    0.0000 C   0  0  0  0  0  0  0  0  0  0  0  0
   11.7439   -9.9353    0.0000 C   0  0  0  0  0  0  0  0  0  0  0  0
   12.4628  -11.9928    0.0000 C   0  0  0  0  0  0  0  0  0  0  0  0
   13.1780  -12.4025    0.0000 C   0  0  0  0  0  0  0  0  0  0  0  0
   13.8919  -11.9872    0.0000 C   0  0  0  0  0  0  0  0  0  0  0  0
   13.8861  -11.1580    0.0000 C   0  0  0  0  0  0  0  0  0  0  0  0
   13.1704  -10.7520    0.0000 C   0  0  0  0  0  0  0  0  0  0  0  0
   12.4581   -9.5246    0.0000 C   0  0  0  0  0  0  0  0  0  0  0  0
   12.4569   -8.7032    0.0000 C   0  0  0  0  0  0  0  0  0  0  0  0
   11.7427   -8.2895    0.0000 C   0  0  0  0  0  0  0  0  0  0  0  0
   11.0280   -8.7035    0.0000 C   0  0  0  0  0  0  0  0  0  0  0  0
   11.0275   -9.5311    0.0000 C   0  0  0  0  0  0  0  0  0  0  0  0
   11.7427   -7.4645    0.0000 O   0  0  0  0  0  0  0  0  0  0  0  0
   13.1714   -8.2907    0.0000 C   0  0  0  0  0  0  0  0  0  0  0  0
   13.8859   -8.7032    0.0000 O   0  0  0  0  0  0  0  0  0  0  0  0
   13.1714   -7.4657    0.0000 O   0  0  0  0  0  0  0  0  0  0  0  0
    8.8923  -10.7668    0.0000 C   0  0  0  0  0  0  0  0  0  0  0  0
    8.8921   -9.9418    0.0000 O   0  0  0  0  0  0  0  0  0  0  0  0
    8.1780  -11.1795    0.0000 O   0  0  0  0  0  0  0  0  0  0  0  0
    8.8909  -12.4184    0.0000 O   0  0  0  0  0  0  0  0  0  0  0  0
   14.5976  -10.7403    0.0000 C   0  0  0  0  0  0  0  0  0  0  0  0
   15.3150  -11.1476    0.0000 O   0  0  0  0  0  0  0  0  0  0  0  0
   14.5915   -9.9153    0.0000 O   0  0  0  0  0  0  0  0  0  0  0  0
   14.6085  -12.3961    0.0000 O   0  0  0  0  0  0  0  0  0  0  0  0
  5  7  1  0
  3  4  2  0
  7  8  1  0
  7  9  2  0
  9 19  1  0
 15 16  2  0
 16 17  1  0
 17 18  1  0
 18 19  2  0
  4  5  1  0
 17 20  2  0
  8 10  2  0
 16 21  1  0
  2  3  1  0
 21 22  1  0
 10 11  1  0
 21 23  2  0
  5  6  2  0
  1 24  1  0
 11 12  2  0
 24 25  2  0
  6  1  1  0
 24 26  1  0
 12 13  1  0
  2 27  1  0
  1  2  2  0
 13 28  1  0
 13 14  2  0
 28 29  1  0
 14  8  1  0
 28 30  2  0
  9 15  1  0
 12 31  1  0
M  END
> <chembl_id>
CHEMBL275938

> <chembl_pref_name>
AURINTRICARBOXYLIC ACID

$$$$
CHEMBL1909745
     RDKit          2D

 30 33  0  0  0  0  0  0  0  0999 V2000
   -1.7860   -0.4113    0.0000 C   0  0  0  0  0  0  0  0  0  0  0  0
   -1.7853    0.4137    0.0000 C   0  0  0  0  0  0  0  0  0  0  0  0
   -1.0705    0.8256    0.0000 C   0  0  0  0  0  0  0  0  0  0  0  0
   -0.3563    0.4125    0.0000 C   0  0  0  0  0  0  0  0  0  0  0  0
    0.3585    0.8244    0.0000 C   0  0  0  0  0  0  0  0  0  0  0  0
    1.0726    0.4113    0.0000 C   0  0  0  0  0  0  0  0  0  0  0  0
    1.0719   -0.4137    0.0000 C   0  0  0  0  0  0  0  0  0  0  0  0
    0.3571   -0.8256    0.0000 C   0  0  0  0  0  0  0  0  0  0  0  0
   -0.3571   -0.4125    0.0000 C   0  0  0  0  0  0  0  0  0  0  0  0
   -1.0719   -0.8244    0.0000 O   0  0  0  0  0  0  0  0  0  0  0  0
   -1.0698    1.6506    0.0000 O   0  0  0  0  0  0  0  0  0  0  0  0
    0.3592    1.6494    0.0000 O   0  0  0  0  0  0  0  0  0  0  0  0
    1.7874    0.8232    0.0000 O   0  0  0  0  0  0  0  0  0  0  0  0
    2.5015    0.4100    0.0000 C   0  0  0  0  0  0  0  0  0  0  0  0
    3.2164    0.8219    0.0000 C   0  0  0  0  0  0  0  0  0  0  0  0
    3.2171    1.6469    0.0000 C   0  0  0  0  0  0  0  0  0  0  0  0
    3.9319    2.0588    0.0000 C   0  0  0  0  0  0  0  0  0  0  0  0
    4.6460    1.6457    0.0000 C   0  0  0  0  0  0  0  0  0  0  0  0
    4.6453    0.8207    0.0000 C   0  0  0  0  0  0  0  0  0  0  0  0
    3.9305    0.4088    0.0000 C   0  0  0  0  0  0  0  0  0  0  0  0
   -2.5008   -0.8232    0.0000 O   0  0  0  0  0  0  0  0  0  0  0  0
   -3.2149   -0.4100    0.0000 C   0  0  0  0  0  0  0  0  0  0  0  0
   -3.9298   -0.8219    0.0000 C   0  0  0  0  0  0  0  0  0  0  0  0
   -3.9305   -1.6469    0.0000 C   0  0  0  0  0  0  0  0  0  0  0  0
   -4.6453   -2.0588    0.0000 C   0  0  0  0  0  0  0  0  0  0  0  0
   -4.6439   -0.4088    0.0000 C   0  0  0  0  0  0  0  0  0  0  0  0
    5.3594    0.4076    0.0000 Cl  0  0  0  0  0  0  0  0  0  0  0  0
   -5.3587   -0.8207    0.0000 C   0  0  0  0  0  0  0  0  0  0  0  0
   -5.3281   -1.7082    0.0000 C   0  0  0  0  0  0  0  0  0  0  0  0
   -6.0426   -2.1207    0.0000 Cl  0  0  0  0  0  0  0  0  0  0  0  0
  1  2  2  0
  2  3  1  0
  3  4  1  0
  4  5  1  0
  5  6  2  0
  6  7  1  0
  7  8  2  0
  8  9  1  0
  4  9  2  0
  9 10  1  0
  1 10  1  0
  3 11  2  0
  5 12  1  0
 14 15  1  0
 15 16  1  0
 16 17  2  0
 17 18  1  0
 18 19  2  0
 19 20  1  0
 15 20  2  0
 13 14  1  0
  6 13  1  0
 22 23  1  0
 23 24  1  0
 24 25  2  0
 25 29  1  0
 29 28  2  0
 28 26  1  0
 23 26  2  0
 21 22  1  0
  1 21  1  0
 19 27  1  0
 29 30  1  0
M  END
> <chembl_id>
CHEMBL1909745

> <chembl_pref_name>
None

$$$$
CHEMBL2011806
     RDKit          2D

 29 33  0  0  0  0  0  0  0  0999 V2000
   20.1831    1.0967    0.0000 C   0  0  0  0  0  0  0  0  0  0  0  0
   19.4278    0.6987    0.0000 C   0  0  0  0  0  0  0  0  0  0  0  0
   19.2887   -0.0932    0.0000 C   0  0  0  0  0  0  0  0  0  0  0  0
   20.9357    0.7472    0.0000 C   0  0  0  0  0  0  0  0  0  0  0  0
   21.1201   -0.0527    0.0000 C   0  0  0  0  0  0  0  0  0  0  0  0
   20.5902   -0.7256    0.0000 N   0  0  0  0  0  0  0  0  0  0  0  0
   19.7969   -0.7256    0.0000 N   0  0  0  0  0  0  0  0  0  0  0  0
   18.5764   -0.5015    0.0000 C   0  0  0  0  0  0  0  0  0  0  0  0
   17.8626   -0.0840    0.0000 C   0  0  0  0  0  0  0  0  0  0  0  0
   17.1462   -0.4933    0.0000 C   0  0  0  0  0  0  0  0  0  0  0  0
   17.1424   -1.3201    0.0000 C   0  0  0  0  0  0  0  0  0  0  0  0
   17.8610   -1.7357    0.0000 C   0  0  0  0  0  0  0  0  0  0  0  0
   18.5745   -1.3240    0.0000 C   0  0  0  0  0  0  0  0  0  0  0  0
   21.8444   -0.4449    0.0000 C   0  0  0  0  0  0  0  0  0  0  0  0
   21.8638   -1.2716    0.0000 C   0  0  0  0  0  0  0  0  0  0  0  0
   22.5883   -1.6664    0.0000 C   0  0  0  0  0  0  0  0  0  0  0  0
   23.2939   -1.2356    0.0000 C   0  0  0  0  0  0  0  0  0  0  0  0
   23.2704   -0.4058    0.0000 C   0  0  0  0  0  0  0  0  0  0  0  0
   22.5454   -0.0147    0.0000 C   0  0  0  0  0  0  0  0  0  0  0  0
   20.1588    1.9202    0.0000 C   0  0  0  0  0  0  0  0  0  0  0  0
   20.8145    2.4222    0.0000 C   0  0  0  0  0  0  0  0  0  0  0  0
   20.5397    3.2011    0.0000 N   0  0  0  0  0  0  0  0  0  0  0  0
   19.4787    2.3887    0.0000 C   0  0  0  0  0  0  0  0  0  0  0  0
   19.7129    3.1764    0.0000 C   0  0  0  0  0  0  0  0  0  0  0  0
   19.1485    3.7711    0.0000 C   0  0  0  0  0  0  0  0  0  0  0  0
   18.3495    3.5793    0.0000 C   0  0  0  0  0  0  0  0  0  0  0  0
   18.1183    2.7874    0.0000 C   0  0  0  0  0  0  0  0  0  0  0  0
   18.6844    2.1961    0.0000 C   0  0  0  0  0  0  0  0  0  0  0  0
   21.6061    2.1868    0.0000 C   0  0  0  0  0  0  0  0  0  0  0  0
  4  5  1  0
 14 15  2  0
 15 16  1  0
  1  2  1  0
 16 17  2  0
  8  9  2  0
 17 18  1  0
  2  3  1  0
 18 19  2  0
 19 14  1  0
  5 14  1  0
 20 21  2  0
  9 10  1  0
  1  4  2  0
 10 11  2  0
 21 22  1  0
 22 24  1  0
 23 20  1  0
  1 20  1  0
  5  6  2  0
 11 12  1  0
 23 24  2  0
  6  7  1  0
 24 25  1  0
 12 13  2  0
 25 26  2  0
 13  8  1  0
 26 27  1  0
  3  8  1  0
 27 28  2  0
 28 23  1  0
  7  3  2  0
 21 29  1  0
M  END
> <chembl_id>
CHEMBL2011806

> <chembl_pref_name>
None

$$$$
CHEMBL1909746
     RDKit          2D

 31 34  0  0  0  0  0  0  0  0999 V2000
   -1.7860   -0.4113    0.0000 C   0  0  0  0  0  0  0  0  0  0  0  0
   -1.7853    0.4137    0.0000 C   0  0  0  0  0  0  0  0  0  0  0  0
   -1.0705    0.8256    0.0000 C   0  0  0  0  0  0  0  0  0  0  0  0
   -0.3563    0.4125    0.0000 C   0  0  0  0  0  0  0  0  0  0  0  0
    0.3585    0.8244    0.0000 C   0  0  0  0  0  0  0  0  0  0  0  0
    1.0726    0.4113    0.0000 C   0  0  0  0  0  0  0  0  0  0  0  0
    1.0719   -0.4137    0.0000 C   0  0  0  0  0  0  0  0  0  0  0  0
    0.3571   -0.8256    0.0000 C   0  0  0  0  0  0  0  0  0  0  0  0
   -0.3571   -0.4125    0.0000 C   0  0  0  0  0  0  0  0  0  0  0  0
   -1.0719   -0.8244    0.0000 O   0  0  0  0  0  0  0  0  0  0  0  0
   -1.0698    1.6506    0.0000 O   0  0  0  0  0  0  0  0  0  0  0  0
    0.3592    1.6494    0.0000 O   0  0  0  0  0  0  0  0  0  0  0  0
    1.7874    0.8232    0.0000 O   0  0  0  0  0  0  0  0  0  0  0  0
    2.5015    0.4100    0.0000 C   0  0  0  0  0  0  0  0  0  0  0  0
    3.2164    0.8219    0.0000 C   0  0  0  0  0  0  0  0  0  0  0  0
    3.2171    1.6469    0.0000 C   0  0  0  0  0  0  0  0  0  0  0  0
    3.9319    2.0588    0.0000 C   0  0  0  0  0  0  0  0  0  0  0  0
    4.6460    1.6457    0.0000 C   0  0  0  0  0  0  0  0  0  0  0  0
    4.6453    0.8207    0.0000 C   0  0  0  0  0  0  0  0  0  0  0  0
    3.9305    0.4088    0.0000 C   0  0  0  0  0  0  0  0  0  0  0  0
   -2.5008   -0.8232    0.0000 O   0  0  0  0  0  0  0  0  0  0  0  0
   -3.2149   -0.4100    0.0000 C   0  0  0  0  0  0  0  0  0  0  0  0
   -3.9298   -0.8219    0.0000 C   0  0  0  0  0  0  0  0  0  0  0  0
   -3.9305   -1.6469    0.0000 C   0  0  0  0  0  0  0  0  0  0  0  0
   -5.3594   -1.6457    0.0000 C   0  0  0  0  0  0  0  0  0  0  0  0
   -4.6439   -0.4088    0.0000 C   0  0  0  0  0  0  0  0  0  0  0  0
    5.3594    0.4076    0.0000 Cl  0  0  0  0  0  0  0  0  0  0  0  0
   -5.3587   -0.8207    0.0000 C   0  0  0  0  0  0  0  0  0  0  0  0
   -6.0732   -0.4082    0.0000 Cl  0  0  0  0  0  0  0  0  0  0  0  0
   -4.6453   -2.0588    0.0000 C   0  0  0  0  0  0  0  0  0  0  0  0
   -4.6453   -2.8838    0.0000 Cl  0  0  0  0  0  0  0  0  0  0  0  0
  1  2  2  0
  2  3  1  0
  3  4  1  0
  4  5  1  0
  5  6  2  0
  6  7  1  0
  7  8  2  0
  8  9  1  0
  4  9  2  0
  9 10  1  0
  1 10  1  0
  3 11  2  0
  5 12  1  0
 14 15  1  0
 15 16  1  0
 16 17  2  0
 17 18  1  0
 18 19  2  0
 19 20  1  0
 15 20  2  0
 13 14  1  0
  6 13  1  0
 22 23  1  0
 23 24  1  0
 24 30  2  0
 30 25  1  0
 25 28  2  0
 28 26  1  0
 23 26  2  0
 21 22  1  0
  1 21  1  0
 19 27  1  0
 28 29  1  0
 30 31  1  0
M  END
> <chembl_id>
CHEMBL1909746

> <chembl_pref_name>
None

$$$$
CHEMBL454576
     RDKit          2D

 33 36  0  0  0  0  0  0  0  0999 V2000
   -1.6792  -11.1667    0.0000 C   0  0  0  0  0  0  0  0  0  0  0  0
   -1.6792  -10.3333    0.0000 C   0  0  0  0  0  0  0  0  0  0  0  0
   -2.4000  -11.5708    0.0000 C   0  0  0  0  0  0  0  0  0  0  0  0
   -3.1125  -11.1583    0.0000 C   0  0  0  0  0  0  0  0  0  0  0  0
   -0.9750  -12.4042    0.0000 C   0  0  0  0  0  0  0  0  0  0  0  0
   -2.4000   -9.9208    0.0000 O   0  0  0  0  0  0  0  0  0  0  0  0
   -3.1125  -10.3333    0.0000 C   0  0  0  0  0  0  0  0  0  0  0  0
   -0.2542  -12.8083    0.0000 C   0  0  0  0  0  0  0  0  0  0  0  0
   -0.9667  -11.5792    0.0000 O   0  0  0  0  0  0  0  0  0  0  0  0
   -0.2625  -13.6417    0.0000 C   0  0  0  0  0  0  0  0  0  0  0  0
   -0.9667   -9.9292    0.0000 C   0  0  0  0  0  0  0  0  0  0  0  0
   -1.6875  -12.8083    0.0000 O   0  0  0  0  0  0  0  0  0  0  0  0
   -3.8250  -11.5792    0.0000 C   0  0  0  0  0  0  0  0  0  0  0  0
   -0.9792  -14.0458    0.0000 C   0  0  0  0  0  0  0  0  0  0  0  0
    0.4625   -9.1083    0.0000 C   0  0  0  0  0  0  0  0  0  0  0  0
   -1.6875  -13.6333    0.0000 C   0  0  0  0  0  0  0  0  0  0  0  0
   -0.2542   -8.6958    0.0000 C   0  0  0  0  0  0  0  0  0  0  0  0
    0.4625   -9.9333    0.0000 C   0  0  0  0  0  0  0  0  0  0  0  0
   -0.9667   -9.1083    0.0000 C   0  0  0  0  0  0  0  0  0  0  0  0
   -0.2542  -10.3458    0.0000 C   0  0  0  0  0  0  0  0  0  0  0  0
   -3.8250   -9.9208    0.0000 C   0  0  0  0  0  0  0  0  0  0  0  0
   -4.5375  -11.1667    0.0000 C   0  0  0  0  0  0  0  0  0  0  0  0
   -2.4000  -12.3958    0.0000 O   0  0  0  0  0  0  0  0  0  0  0  0
   -4.5375  -10.3333    0.0000 C   0  0  0  0  0  0  0  0  0  0  0  0
    0.4625  -12.3958    0.0000 O   0  0  0  0  0  0  0  0  0  0  0  0
    0.4500  -14.0583    0.0000 O   0  0  0  0  0  0  0  0  0  0  0  0
   -3.8250  -12.4042    0.0000 O   0  0  0  0  0  0  0  0  0  0  0  0
   -0.9875  -14.8708    0.0000 O   0  0  0  0  0  0  0  0  0  0  0  0
    1.1750   -8.6958    0.0000 O   0  0  0  0  0  0  0  0  0  0  0  0
   -0.2542   -7.8708    0.0000 O   0  0  0  0  0  0  0  0  0  0  0  0
    1.1750  -10.3458    0.0000 O   0  0  0  0  0  0  0  0  0  0  0  0
   -5.2542   -9.9208    0.0000 O   0  0  0  0  0  0  0  0  0  0  0  0
   -2.4042  -14.0333    0.0000 C   0  0  0  0  0  0  0  0  0  0  0  0
  2  1  2  0
  3  1  1  0
  4  3  1  0
  5  9  1  1
  6  2  1  0
  7  4  1  0
  8  5  1  0
  9  1  1  0
 10  8  1  0
 11  2  1  0
 12  5  1  0
 13  4  2  0
 14 16  1  0
 15 18  2  0
 16 12  1  0
 17 19  2  0
 18 20  1  0
 19 11  1  0
 20 11  2  0
 21  7  2  0
 22 13  1  0
 23  3  2  0
 24 21  1  0
  8 25  1  1
 10 26  1  1
 27 13  1  0
 14 28  1  6
 29 15  1  0
 30 17  1  0
 31 18  1  0
 32 24  1  0
 16 33  1  1
  6  7  1  0
 15 17  1  0
 10 14  1  0
 24 22  2  0
M  END
> <chembl_id>
CHEMBL454576

> <chembl_pref_name>
MYRICITRIN

$$$$
CHEMBL3415710
     RDKit          2D

 22 25  0  0  0  0  0  0  0  0999 V2000
    7.0793   -0.1764    0.0000 C   0  0  0  0  0  0  0  0  0  0  0  0
   -1.0028   -1.5132    0.0000 C   0  0  0  0  0  0  0  0  0  0  0  0
    6.4184    1.1701    0.0000 C   0  0  0  0  0  0  0  0  0  0  0  0
    1.7138   -1.2033    0.0000 C   0  0  0  0  0  0  0  0  0  0  0  0
    5.5886    4.6654    0.0000 C   0  0  0  0  0  0  0  0  0  0  0  0
   -2.3155    0.7475    0.0000 C   0  0  0  0  0  0  0  0  0  0  0  0
    6.2436   -1.4221    0.0000 C   0  0  0  0  0  0  0  0  0  0  0  0
    6.5873    3.5462    0.0000 C   0  0  0  0  0  0  0  0  0  0  0  0
    2.1812    2.6271    0.0000 C   0  0  0  0  0  0  0  0  0  0  0  0
    4.9218    1.2711    0.0000 C   0  0  0  0  0  0  0  0  0  0  0  0
   -2.3155   -0.7475    0.0000 C   0  0  0  0  0  0  0  0  0  0  0  0
    4.0896    0.0290    0.0000 C   0  0  0  0  0  0  0  0  0  0  0  0
    4.7470   -1.3211    0.0000 C   0  0  0  0  0  0  0  0  0  0  0  0
    2.5889    0.0182    0.0000 C   0  0  0  0  0  0  0  0  0  0  0  0
    6.1174    2.1217    0.0000 C   0  0  0  0  0  0  0  0  0  0  0  0
    0.2917   -0.7475    0.0000 C   0  0  0  0  0  0  0  0  0  0  0  0
    1.7138    1.2033    0.0000 N   0  0  0  0  0  0  0  0  0  0  0  0
    4.6488    1.8163    0.0000 C   0  0  0  0  0  0  0  0  0  0  0  0
    3.6500    2.9355    0.0000 C   0  0  0  0  0  0  0  0  0  0  0  0
   -1.0028    1.5132    0.0000 C   0  0  0  0  0  0  0  0  0  0  0  0
    4.1200    4.3600    0.0000 C   0  0  0  0  0  0  0  0  0  0  0  0
    0.2917    0.7475    0.0000 C   0  0  0  0  0  0  0  0  0  0  0  0
  6 20  1  0
  8  5  1  0
  9 19  1  0
  3 10  2  0
  5 21  2  0
 14 12  1  0
 11  6  1  0
 21 19  1  0
 18 15  1  0
 10 12  1  0
 17 14  1  0
 15  8  2  0
 12 13  2  0
 11  2  1  0
 16  2  1  0
 17  9  1  0
  1  3  1  0
 20 22  1  0
  7  1  2  0
 13  7  1  0
 14  4  2  0
 16 22  2  0
 19 18  2  0
 22 17  1  0
  4 16  1  0
M  END
> <chembl_id>
CHEMBL3415710

> <chembl_pref_name>
None

$$$$
CHEMBL53912
     RDKit          2D

 17 18  0  0  0  0  0  0  0  0999 V2000
    0.7917   -4.7125    0.0000 N   0  0  0  0  0  0  0  0  0  0  0  0
    0.2792   -3.8125    0.0000 N   0  0  0  0  0  0  0  0  0  0  0  0
    0.2792   -4.4125    0.0000 C   0  0  0  0  0  0  0  0  0  0  0  0
    1.3167   -4.4125    0.0000 C   0  0  0  0  0  0  0  0  0  0  0  0
    0.7917   -3.5042    0.0000 C   0  0  0  0  0  0  0  0  0  0  0  0
    1.3167   -3.8042    0.0000 C   0  0  0  0  0  0  0  0  0  0  0  0
    2.8667   -3.5042    0.0000 C   0  0  0  0  0  0  0  0  0  0  0  0
    1.8375   -4.7125    0.0000 N   0  0  0  0  0  0  0  0  0  0  0  0
    2.3500   -3.8125    0.0000 C   0  0  0  0  0  0  0  0  0  0  0  0
    2.3542   -4.4042    0.0000 C   0  0  0  0  0  0  0  0  0  0  0  0
    3.3917   -3.8042    0.0000 C   0  0  0  0  0  0  0  0  0  0  0  0
   -0.2458   -4.7125    0.0000 N   0  0  0  0  0  0  0  0  0  0  0  0
    3.3917   -4.4042    0.0000 C   0  0  0  0  0  0  0  0  0  0  0  0
    0.7917   -2.9042    0.0000 Cl  0  0  0  0  0  0  0  0  0  0  0  0
    2.8625   -2.9042    0.0000 Cl  0  0  0  0  0  0  0  0  0  0  0  0
    2.8750   -4.7042    0.0000 C   0  0  0  0  0  0  0  0  0  0  0  0
    3.9042   -3.5000    0.0000 Cl  0  0  0  0  0  0  0  0  0  0  0  0
  2  3  1  0
  3  1  2  0
  4  1  1  0
  5  6  1  0
  6  4  2  0
  7  9  2  0
  8  4  1  0
  9 10  1  0
 10  8  1  0
 11 13  2  0
 12  3  1  0
 13 16  1  0
 14  5  1  0
 15  7  1  0
 16 10  2  0
 17 11  1  0
  2  5  2  0
 11  7  1  0
M  END
> <chembl_id>
CHEMBL53912

> <chembl_pref_name>
None

$$$$
CHEMBL1813563
     RDKit          2D

 63 68  0  0  0  0  0  0  0  0999 V2000
    4.6945   -2.0482    0.0000 O   0  0  0  0  0  0  0  0  0  0  0  0
    3.8909   -1.8337    0.0000 S   0  0  0  0  0  0  0  0  0  0  0  0
    4.1068   -2.6369    0.0000 O   0  0  0  0  0  0  0  0  0  0  0  0
    1.0471    1.4520    0.0000 O   0  0  0  0  0  0  0  0  0  0  0  0
    0.3342    1.8706    0.0000 C   0  0  0  0  0  0  0  0  0  0  0  0
   -1.0848    2.7008    0.0000 N   0  0  0  0  0  0  0  0  0  0  0  0
   -1.0859    1.8727    0.0000 C   0  0  0  0  0  0  0  0  0  0  0  0
   -0.3737    1.4629    0.0000 C   0  0  0  0  0  0  0  0  0  0  0  0
   -0.3688    3.1132    0.0000 C   0  0  0  0  0  0  0  0  0  0  0  0
    0.3401    2.6982    0.0000 C   0  0  0  0  0  0  0  0  0  0  0  0
    1.0481    3.1028    0.0000 C   0  0  0  0  0  0  0  0  0  0  0  0
    1.0543    3.9243    0.0000 C   0  0  0  0  0  0  0  0  0  0  0  0
    0.3388    4.3350    0.0000 C   0  0  0  0  0  0  0  0  0  0  0  0
   -0.3667    3.9290    0.0000 C   0  0  0  0  0  0  0  0  0  0  0  0
    0.3373    5.1595    0.0000 O   0  0  0  0  0  0  0  0  0  0  0  0
    1.0530    5.5731    0.0000 C   0  0  0  0  0  0  0  0  0  0  0  0
   -1.8002    1.4604    0.0000 C   0  0  0  0  0  0  0  0  0  0  0  0
   -2.5137    1.8763    0.0000 C   0  0  0  0  0  0  0  0  0  0  0  0
   -3.2272    1.4608    0.0000 C   0  0  0  0  0  0  0  0  0  0  0  0
   -3.2279    0.6391    0.0000 C   0  0  0  0  0  0  0  0  0  0  0  0
   -2.5101    0.2272    0.0000 C   0  0  0  0  0  0  0  0  0  0  0  0
   -1.7967    0.6378    0.0000 C   0  0  0  0  0  0  0  0  0  0  0  0
    1.0451    0.6275    0.0000 C   0  0  0  0  0  0  0  0  0  0  0  0
    0.3246    0.2238    0.0000 C   0  0  0  0  0  0  0  0  0  0  0  0
    0.3221   -0.5995    0.0000 C   0  0  0  0  0  0  0  0  0  0  0  0
    1.0342   -1.0142    0.0000 C   0  0  0  0  0  0  0  0  0  0  0  0
    1.7511   -0.6005    0.0000 C   0  0  0  0  0  0  0  0  0  0  0  0
    1.7524    0.2208    0.0000 C   0  0  0  0  0  0  0  0  0  0  0  0
    1.0296   -1.8388    0.0000 C   0  0  0  0  0  0  0  0  0  0  0  0
   -0.4012   -1.8377    0.0000 C   0  0  0  0  0  0  0  0  0  0  0  0
   -1.1136   -2.2462    0.0000 C   0  0  0  0  0  0  0  0  0  0  0  0
   -0.3967   -1.0132    0.0000 O   0  0  0  0  0  0  0  0  0  0  0  0
   -1.1182   -3.0707    0.0000 C   0  0  0  0  0  0  0  0  0  0  0  0
   -1.8347   -3.4833    0.0000 C   0  0  0  0  0  0  0  0  0  0  0  0
   -0.4060   -3.4869    0.0000 C   0  0  0  0  0  0  0  0  0  0  0  0
   -1.1247   -3.8967    0.0000 C   0  0  0  0  0  0  0  0  0  0  0  0
    1.7418   -2.2550    0.0000 C   0  0  0  0  0  0  0  0  0  0  0  0
    2.4583   -1.8424    0.0000 O   0  0  0  0  0  0  0  0  0  0  0  0
    2.4535   -3.4956    0.0000 C   0  0  0  0  0  0  0  0  0  0  0  0
    2.4490   -4.3201    0.0000 C   0  0  0  0  0  0  0  0  0  0  0  0
    3.1701   -3.0831    0.0000 C   0  0  0  0  0  0  0  0  0  0  0  0
    3.1653   -4.7363    0.0000 C   0  0  0  0  0  0  0  0  0  0  0  0
    3.1608   -5.5608    0.0000 C   0  0  0  0  0  0  0  0  0  0  0  0
    2.4359    0.7508    0.0000 C   0  0  0  0  0  0  0  0  0  0  0  0
    3.8910   -3.5004    0.0000 O   0  0  0  0  0  0  0  0  0  0  0  0
    3.8940   -1.0016    0.0000 C   0  0  0  0  0  0  0  0  0  0  0  0
    4.6169   -0.5873    0.0000 C   0  0  0  0  0  0  0  0  0  0  0  0
    4.6183    0.2448    0.0000 C   0  0  0  0  0  0  0  0  0  0  0  0
    3.8970    0.6631    0.0000 C   0  0  0  0  0  0  0  0  0  0  0  0
    3.1726    0.2430    0.0000 C   0  0  0  0  0  0  0  0  0  0  0  0
    3.1749   -0.5878    0.0000 C   0  0  0  0  0  0  0  0  0  0  0  0
    2.4690   -0.1931    0.0000 C   0  0  0  0  0  0  0  0  0  0  0  0
   -2.5419   -2.2496    0.0000 C   0  0  0  0  0  0  0  0  0  0  0  0
   -2.5430   -3.0813    0.0000 O   0  0  0  0  0  0  0  0  0  0  0  0
   -3.2725   -1.8339    0.0000 O   0  0  0  0  0  0  0  0  0  0  0  0
   -3.9983   -2.2504    0.0000 C   0  0  0  0  0  0  0  0  0  0  0  0
   -4.7196   -1.8339    0.0000 C   0  0  0  0  0  0  0  0  0  0  0  0
   -3.9983   -3.0785    0.0000 C   0  0  0  0  0  0  0  0  0  0  0  0
   -4.7139   -2.6750    0.0000 C   0  0  0  0  0  0  0  0  0  0  0  0
    3.1835   -2.2582    0.0000 N   0  0  0  0  0  0  0  0  0  0  0  0
    1.7409   -3.0800    0.0000 N   0  0  0  0  0  0  0  0  0  0  0  0
   -1.8288   -1.8348    0.0000 N   0  0  0  0  0  0  0  0  0  0  0  0
    0.3139   -2.2491    0.0000 N   0  0  0  0  0  0  0  0  0  0  0  0
  2  1  2  0
  3  2  2  0
  4  5  1  0
  5 10  2  0
  9  6  2  0
  6  7  1  0
  7  8  2  0
  8  5  1  0
  9 10  1  0
 10 11  1  0
 11 12  2  0
 12 13  1  0
 13 14  2  0
 14  9  1  0
 13 15  1  0
 15 16  1  0
  7 17  1  0
 17 18  2  0
 18 19  1  0
 19 20  2  0
 20 21  1  0
 21 22  2  0
 22 17  1  0
  4 23  1  0
 23 24  2  0
 24 25  1  0
 25 26  2  0
 26 27  1  0
 27 28  2  0
 28 23  1  0
 29 26  1  0
 30 31  1  0
 30 32  2  0
 31 33  1  6
 33 34  1  0
 33 35  1  0
 33 36  1  0
 29 37  1  0
 37 38  2  0
 39 40  1  6
 39 41  1  0
 40 42  1  0
 42 43  1  0
 28 44  1  0
 41 45  2  0
  2 46  1  0
 46 47  2  0
 47 48  1  0
 48 49  2  0
 49 50  1  0
 50 51  2  0
 51 46  1  0
 44 52  2  0
 52 51  1  0
 53 54  2  0
 53 55  1  0
 55 56  1  0
 56 57  1  0
 56 58  1  0
 56 59  1  0
 41 60  1  0
  2 60  1  0
 37 61  1  0
 39 61  1  0
 31 62  1  0
 53 62  1  0
 29 63  1  1
 30 63  1  0
M  END
> <chembl_id>
CHEMBL1813563

> <chembl_pref_name>
None

$$$$
CHEMBL1549566
     RDKit          2D

 19 20  0  0  0  0  0  0  0  0999 V2000
    2.0440   -3.0695    0.0000 Br  0  0  0  0  0  0  0  0  0  0  0  0
   -0.5669   -1.9071    0.0000 Br  0  0  0  0  0  0  0  0  0  0  0  0
    2.6713    2.0647    0.0000 O   0  0  0  0  0  0  0  0  0  0  0  0
    2.7151   -1.5622    0.0000 O   0  0  0  0  0  0  0  0  0  0  0  0
    3.7217    0.6988    0.0000 O   0  0  0  0  0  0  0  0  0  0  0  0
    1.4097   -0.9810    0.0000 C   0  0  0  0  0  0  0  0  0  0  0  0
    1.8946   -1.6484    0.0000 C   0  0  0  0  0  0  0  0  0  0  0  0
    1.5590   -2.4021    0.0000 C   0  0  0  0  0  0  0  0  0  0  0  0
    2.4163    1.2800    0.0000 C   0  0  0  0  0  0  0  0  0  0  0  0
    0.5892   -1.0672    0.0000 C   0  0  0  0  0  0  0  0  0  0  0  0
    0.2536   -1.8209    0.0000 C   0  0  0  0  0  0  0  0  0  0  0  0
    2.9013    0.6126    0.0000 C   0  0  0  0  0  0  0  0  0  0  0  0
    1.7452   -0.2273    0.0000 C   0  0  0  0  0  0  0  0  0  0  0  0
    0.7385   -2.4883    0.0000 C   0  0  0  0  0  0  0  0  0  0  0  0
    2.5657   -0.1411    0.0000 C   0  0  0  0  0  0  0  0  0  0  0  0
    2.0038    2.5496    0.0000 C   0  0  0  0  0  0  0  0  0  0  0  0
    1.5913    1.2800    0.0000 C   0  0  0  0  0  0  0  0  0  0  0  0
    1.3364    2.0647    0.0000 C   0  0  0  0  0  0  0  0  0  0  0  0
    2.0038    3.3746    0.0000 C   0  0  0  0  0  0  0  0  0  0  0  0
  1  8  1  0
  2 11  1  0
  3  9  1  0
  3 16  1  0
  4  7  1  0
  5 12  2  0
  6  7  1  0
  6 10  2  0
  6 13  1  0
  7  8  2  0
  8 14  1  0
  9 12  1  0
  9 17  2  0
 10 11  1  0
 11 14  2  0
 12 15  1  0
 13 15  2  0
 16 18  2  0
 16 19  1  0
 17 18  1  0
M  END
> <chembl_id>
CHEMBL1549566

> <chembl_pref_name>
None

$$$$
CHEMBL490625
     RDKit          2D

 24 27  0  0  0  0  0  0  0  0999 V2000
   10.9224  -20.9109    0.0000 C   0  0  0  0  0  0  0  0  0  0  0  0
   10.9212  -21.7376    0.0000 C   0  0  0  0  0  0  0  0  0  0  0  0
   11.6355  -22.1501    0.0000 C   0  0  0  0  0  0  0  0  0  0  0  0
   11.6337  -20.4986    0.0000 C   0  0  0  0  0  0  0  0  0  0  0  0
   12.3484  -20.9073    0.0000 C   0  0  0  0  0  0  0  0  0  0  0  0
   12.3472  -21.7397    0.0000 C   0  0  0  0  0  0  0  0  0  0  0  0
   13.0634  -22.1545    0.0000 N   0  0  0  0  0  0  0  0  0  0  0  0
   13.0658  -20.4899    0.0000 C   0  0  0  0  0  0  0  0  0  0  0  0
   13.7867  -20.9094    0.0000 C   0  0  0  0  0  0  0  0  0  0  0  0
   13.7854  -21.7376    0.0000 C   0  0  0  0  0  0  0  0  0  0  0  0
   14.5009  -22.1510    0.0000 C   0  0  0  0  0  0  0  0  0  0  0  0
   15.2182  -21.7373    0.0000 C   0  0  0  0  0  0  0  0  0  0  0  0
   15.2154  -20.9059    0.0000 C   0  0  0  0  0  0  0  0  0  0  0  0
   14.4994  -20.4963    0.0000 C   0  0  0  0  0  0  0  0  0  0  0  0
   13.0659  -19.6656    0.0000 O   0  0  0  0  0  0  0  0  0  0  0  0
   14.5006  -22.9753    0.0000 C   0  0  0  0  0  0  0  0  0  0  0  0
   13.7865  -23.3872    0.0000 O   0  0  0  0  0  0  0  0  0  0  0  0
   15.2143  -23.3877    0.0000 N   0  0  0  0  0  0  0  0  0  0  0  0
   15.2139  -24.2119    0.0000 C   0  0  0  0  0  0  0  0  0  0  0  0
   14.4999  -24.6182    0.0000 C   0  0  0  0  0  0  0  0  0  0  0  0
   14.4992  -25.4417    0.0000 C   0  0  0  0  0  0  0  0  0  0  0  0
   15.2134  -25.8549    0.0000 C   0  0  0  0  0  0  0  0  0  0  0  0
   15.9297  -25.4387    0.0000 C   0  0  0  0  0  0  0  0  0  0  0  0
   15.9269  -24.6165    0.0000 N   0  0  0  0  0  0  0  0  0  0  0  0
 11 12  2  0
  2  3  1  0
 12 13  1  0
  3  6  2  0
 13 14  2  0
 14  9  1  0
  1  2  2  0
  8 15  2  0
  5  8  1  0
 11 16  1  0
  6  7  1  0
 16 17  2  0
  7 10  1  0
 16 18  1  0
  9  8  1  0
 18 19  1  0
  5  4  2  0
 19 20  2  0
  4  1  1  0
 20 21  1  0
  9 10  2  0
 21 22  2  0
  5  6  1  0
 22 23  1  0
 10 11  1  0
 23 24  2  0
 24 19  1  0
M  END
> <chembl_id>
CHEMBL490625

> <chembl_pref_name>
None

$$$$
CHEMBL501187
     RDKit          2D

 40 42  0  0  0  0  0  0  0  0999 V2000
   12.4755   -3.7622    0.0000 N   0  0  0  0  0  0  0  0  0  0  0  0
   13.2664   -3.9440    0.0000 C   0  0  0  0  0  0  0  0  0  0  0  0
   11.8247   -4.2746    0.0000 C   0  0  0  0  0  0  0  0  0  0  0  0
   11.8234   -5.1066    0.0000 N   0  0  0  0  0  0  0  0  0  0  0  0
   12.4569   -5.6216    0.0000 C   0  0  0  0  0  0  0  0  0  0  0  0
   13.8109   -3.3201    0.0000 O   0  0  0  0  0  0  0  0  0  0  0  0
   12.2950   -6.4324    0.0000 O   0  0  0  0  0  0  0  0  0  0  0  0
   13.6336   -4.7035    0.0000 C   0  0  0  0  0  0  0  0  0  0  0  0
   13.2769   -5.4451    0.0000 C   0  0  0  0  0  0  0  0  0  0  0  0
   13.8712   -6.0118    0.0000 N   0  0  0  0  0  0  0  0  0  0  0  0
   14.5984   -5.6254    0.0000 C   0  0  0  0  0  0  0  0  0  0  0  0
   14.4480   -4.8132    0.0000 N   0  0  0  0  0  0  0  0  0  0  0  0
   11.0835   -3.9174    0.0000 N   0  0  0  0  0  0  0  0  0  0  0  0
   13.6392   -6.8055    0.0000 C   0  0  0  0  0  0  0  0  0  0  0  0
   14.1467   -7.4614    0.0000 C   0  0  0  0  0  0  0  0  0  0  0  0
   13.6788   -8.1455    0.0000 C   0  0  0  0  0  0  0  0  0  0  0  0
   12.8704   -7.8934    0.0000 C   0  0  0  0  0  0  0  0  0  0  0  0
   12.8604   -7.0831    0.0000 O   0  0  0  0  0  0  0  0  0  0  0  0
   12.2384   -8.4285    0.0000 C   0  0  0  0  0  0  0  0  0  0  0  0
   12.3358   -9.2321    0.0000 O   0  0  0  0  0  0  0  0  0  0  0  0
   13.9526   -8.9239    0.0000 O   0  0  0  0  0  0  0  0  0  0  0  0
   10.3607   -4.3128    0.0000 C   0  0  0  0  0  0  0  0  0  0  0  0
    9.6527   -3.8898    0.0000 C   0  0  0  0  0  0  0  0  0  0  0  0
    8.9286   -4.2892    0.0000 C   0  0  0  0  0  0  0  0  0  0  0  0
    8.2246   -3.8673    0.0000 C   0  0  0  0  0  0  0  0  0  0  0  0
    7.5017   -4.2628    0.0000 C   0  0  0  0  0  0  0  0  0  0  0  0
    6.7937   -3.8397    0.0000 C   0  0  0  0  0  0  0  0  0  0  0  0
    6.0697   -4.2391    0.0000 C   0  0  0  0  0  0  0  0  0  0  0  0
    5.3617   -3.8160    0.0000 C   0  0  0  0  0  0  0  0  0  0  0  0
    4.6376   -4.2155    0.0000 C   0  0  0  0  0  0  0  0  0  0  0  0
    3.9337   -3.7936    0.0000 C   0  0  0  0  0  0  0  0  0  0  0  0
    3.2067   -4.1879    0.0000 C   0  0  0  0  0  0  0  0  0  0  0  0
    2.5027   -3.7660    0.0000 C   0  0  0  0  0  0  0  0  0  0  0  0
    1.7786   -4.1655    0.0000 C   0  0  0  0  0  0  0  0  0  0  0  0
    1.0707   -3.7424    0.0000 C   0  0  0  0  0  0  0  0  0  0  0  0
    0.3478   -4.1378    0.0000 C   0  0  0  0  0  0  0  0  0  0  0  0
   -0.3602   -3.7147    0.0000 C   0  0  0  0  0  0  0  0  0  0  0  0
   -1.0843   -4.1142    0.0000 C   0  0  0  0  0  0  0  0  0  0  0  0
   -1.7900   -3.6892    0.0000 C   0  0  0  0  0  0  0  0  0  0  0  0
   14.9736   -7.4358    0.0000 O   0  0  0  0  0  0  0  0  0  0  0  0
 17 19  1  1
  2  8  1  0
 19 20  1  0
  9  5  1  0
 16 21  1  6
  4  5  1  0
 13 22  1  0
  9 10  1  0
 22 23  1  0
 10 11  1  0
 23 24  1  0
 11 12  2  0
 24 25  1  0
 12  8  1  0
 25 26  1  0
 26 27  1  0
  3 13  1  0
 27 28  1  0
  2  6  2  0
 28 29  1  0
 14 10  1  1
 29 30  1  0
 14 15  1  0
 30 31  1  0
  1  3  2  0
 31 32  1  0
  5  7  2  0
 32 33  1  0
  8  9  2  0
 33 34  1  0
  1  2  1  0
 34 35  1  0
 15 16  1  0
 35 36  1  0
 16 17  1  0
 36 37  1  0
 17 18  1  0
 37 38  1  0
 18 14  1  0
 38 39  1  0
  3  4  1  0
 15 40  1  6
M  END
> <chembl_id>
CHEMBL501187

> <chembl_pref_name>
None

$$$$
CHEMBL1447158
     RDKit          2D

 30 33  0  0  0  0  0  0  0  0999 V2000
   -0.8040   -0.2827    0.0000 S   0  0  0  0  0  0  0  0  0  0  0  0
    2.2284   -0.9972    0.0000 S   0  0  0  0  0  0  0  0  0  0  0  0
    0.9184    1.0992    0.0000 O   0  0  0  0  0  0  0  0  0  0  0  0
   -5.1610    1.2097    0.0000 O   0  0  0  0  0  0  0  0  0  0  0  0
   -5.1610   -0.4403    0.0000 O   0  0  0  0  0  0  0  0  0  0  0  0
   -2.3031   -0.4403    0.0000 N   0  0  0  0  0  0  0  0  0  0  0  0
    0.9184   -0.3298    0.0000 N   0  0  0  0  0  0  0  0  0  0  0  0
   -0.5490    1.8368    0.0000 N   0  0  0  0  0  0  0  0  0  0  0  0
    1.7185    1.9069    0.0000 N   0  0  0  0  0  0  0  0  0  0  0  0
   -1.5886    0.7972    0.0000 C   0  0  0  0  0  0  0  0  0  0  0  0
   -1.5886   -0.0278    0.0000 C   0  0  0  0  0  0  0  0  0  0  0  0
   -0.3191    0.3847    0.0000 C   0  0  0  0  0  0  0  0  0  0  0  0
   -0.8040    1.0521    0.0000 C   0  0  0  0  0  0  0  0  0  0  0  0
   -3.0176    0.7972    0.0000 C   0  0  0  0  0  0  0  0  0  0  0  0
   -3.0176   -0.0278    0.0000 C   0  0  0  0  0  0  0  0  0  0  0  0
   -2.3031    1.2097    0.0000 C   0  0  0  0  0  0  0  0  0  0  0  0
    0.5059    0.3847    0.0000 C   0  0  0  0  0  0  0  0  0  0  0  0
    1.7434   -0.3298    0.0000 C   0  0  0  0  0  0  0  0  0  0  0  0
   -3.7320    1.2097    0.0000 C   0  0  0  0  0  0  0  0  0  0  0  0
   -3.7320   -0.4403    0.0000 C   0  0  0  0  0  0  0  0  0  0  0  0
   -4.4465    0.7972    0.0000 C   0  0  0  0  0  0  0  0  0  0  0  0
   -4.4465   -0.0278    0.0000 C   0  0  0  0  0  0  0  0  0  0  0  0
    2.2284    0.3377    0.0000 C   0  0  0  0  0  0  0  0  0  0  0  0
    3.0130    0.0827    0.0000 C   0  0  0  0  0  0  0  0  0  0  0  0
    3.0130   -0.7423    0.0000 C   0  0  0  0  0  0  0  0  0  0  0  0
    1.9734    1.1223    0.0000 C   0  0  0  0  0  0  0  0  0  0  0  0
    3.6804    0.5677    0.0000 C   0  0  0  0  0  0  0  0  0  0  0  0
    3.6804   -1.2272    0.0000 C   0  0  0  0  0  0  0  0  0  0  0  0
   -5.8754    0.7972    0.0000 C   0  0  0  0  0  0  0  0  0  0  0  0
   -5.8754   -0.0278    0.0000 C   0  0  0  0  0  0  0  0  0  0  0  0
  1 11  1  0
  1 12  1  0
  2 18  1  0
  2 25  1  0
  3 17  2  0
  4 21  1  0
  4 29  1  0
  5 22  1  0
  5 30  1  0
  6 11  1  0
  6 15  2  0
  7 17  1  0
  7 18  1  0
  8 13  1  0
  9 26  3  0
 10 11  2  0
 10 13  1  0
 10 16  1  0
 12 13  2  0
 12 17  1  0
 14 15  1  0
 14 16  2  0
 14 19  1  0
 15 20  1  0
 18 23  2  0
 19 21  2  0
 20 22  2  0
 21 22  1  0
 23 24  1  0
 23 26  1  0
 24 25  2  0
 24 27  1  0
 25 28  1  0
M  END
> <chembl_id>
CHEMBL1447158

> <chembl_pref_name>
None

$$$$
CHEMBL490623
     RDKit          2D

 25 28  0  0  0  0  0  0  0  0999 V2000
   -4.2063  -19.7127    0.0000 C   0  0  0  0  0  0  0  0  0  0  0  0
   -4.2074  -20.5394    0.0000 C   0  0  0  0  0  0  0  0  0  0  0  0
   -3.4932  -20.9520    0.0000 C   0  0  0  0  0  0  0  0  0  0  0  0
   -3.4950  -19.3003    0.0000 C   0  0  0  0  0  0  0  0  0  0  0  0
   -2.7802  -19.7091    0.0000 C   0  0  0  0  0  0  0  0  0  0  0  0
   -2.7814  -20.5415    0.0000 C   0  0  0  0  0  0  0  0  0  0  0  0
   -2.0651  -20.9564    0.0000 N   0  0  0  0  0  0  0  0  0  0  0  0
   -2.0627  -19.2916    0.0000 C   0  0  0  0  0  0  0  0  0  0  0  0
   -1.3419  -19.7112    0.0000 C   0  0  0  0  0  0  0  0  0  0  0  0
   -1.3432  -20.5394    0.0000 C   0  0  0  0  0  0  0  0  0  0  0  0
   -0.6277  -20.9529    0.0000 C   0  0  0  0  0  0  0  0  0  0  0  0
    0.0896  -20.5391    0.0000 C   0  0  0  0  0  0  0  0  0  0  0  0
    0.0869  -19.7077    0.0000 C   0  0  0  0  0  0  0  0  0  0  0  0
   -0.6292  -19.2980    0.0000 C   0  0  0  0  0  0  0  0  0  0  0  0
   -2.0627  -18.4673    0.0000 O   0  0  0  0  0  0  0  0  0  0  0  0
   -0.6280  -21.7772    0.0000 C   0  0  0  0  0  0  0  0  0  0  0  0
   -1.3420  -22.1890    0.0000 O   0  0  0  0  0  0  0  0  0  0  0  0
    0.0857  -22.1895    0.0000 N   0  0  0  0  0  0  0  0  0  0  0  0
    0.0854  -23.0138    0.0000 C   0  0  0  0  0  0  0  0  0  0  0  0
   -0.6287  -23.4201    0.0000 C   0  0  0  0  0  0  0  0  0  0  0  0
   -0.6294  -24.2436    0.0000 C   0  0  0  0  0  0  0  0  0  0  0  0
    0.0849  -24.6569    0.0000 C   0  0  0  0  0  0  0  0  0  0  0  0
    0.8013  -24.2406    0.0000 C   0  0  0  0  0  0  0  0  0  0  0  0
    0.7984  -23.4184    0.0000 N   0  0  0  0  0  0  0  0  0  0  0  0
   -1.3436  -24.6552    0.0000 C   0  0  0  0  0  0  0  0  0  0  0  0
 11 12  2  0
  2  3  1  0
 12 13  1  0
  3  6  2  0
 13 14  2  0
 14  9  1  0
  1  2  2  0
  8 15  2  0
  5  8  1  0
 11 16  1  0
  6  7  1  0
 16 17  2  0
  7 10  1  0
 16 18  1  0
  9  8  1  0
 18 19  1  0
  5  4  2  0
 19 20  2  0
  4  1  1  0
 20 21  1  0
  9 10  2  0
 21 22  2  0
  5  6  1  0
 22 23  1  0
 10 11  1  0
 23 24  2  0
 24 19  1  0
 21 25  1  0
M  END
> <chembl_id>
CHEMBL490623

> <chembl_pref_name>
None

$$$$
CHEMBL3103513
     RDKit          2D

 24 27  0  0  0  0  0  0  0  0999 V2000
    2.1924   -9.9096    0.0000 C   0  0  0  0  0  0  0  0  0  0  0  0
    2.1912  -10.7377    0.0000 C   0  0  0  0  0  0  0  0  0  0  0  0
    2.9067  -11.1510    0.0000 C   0  0  0  0  0  0  0  0  0  0  0  0
    2.9049   -9.4964    0.0000 C   0  0  0  0  0  0  0  0  0  0  0  0
    3.6209   -9.9060    0.0000 C   0  0  0  0  0  0  0  0  0  0  0  0
    3.6212  -10.7377    0.0000 C   0  0  0  0  0  0  0  0  0  0  0  0
    4.4125  -10.9946    0.0000 O   0  0  0  0  0  0  0  0  0  0  0  0
    4.9013  -10.3215    0.0000 C   0  0  0  0  0  0  0  0  0  0  0  0
    4.4121   -9.6487    0.0000 N   0  0  0  0  0  0  0  0  0  0  0  0
    5.7238  -10.3198    0.0000 C   0  0  0  0  0  0  0  0  0  0  0  0
    6.1364  -11.0364    0.0000 C   0  0  0  0  0  0  0  0  0  0  0  0
    6.9614  -11.0364    0.0000 C   0  0  0  0  0  0  0  0  0  0  0  0
    6.1336   -9.6066    0.0000 C   0  0  0  0  0  0  0  0  0  0  0  0
    2.9020   -8.6668    0.0000 C   0  0  0  0  0  0  0  0  0  0  0  0
    3.6159   -8.2518    0.0000 O   0  0  0  0  0  0  0  0  0  0  0  0
    2.1856   -8.2561    0.0000 O   0  0  0  0  0  0  0  0  0  0  0  0
    2.1832   -7.4303    0.0000 C   0  0  0  0  0  0  0  0  0  0  0  0
    5.7194   -8.8923    0.0000 O   0  0  0  0  0  0  0  0  0  0  0  0
    6.9566   -9.6053    0.0000 C   0  0  0  0  0  0  0  0  0  0  0  0
    7.3696  -10.3189    0.0000 C   0  0  0  0  0  0  0  0  0  0  0  0
    8.1922  -10.3169    0.0000 C   0  0  0  0  0  0  0  0  0  0  0  0
    8.6027   -9.6023    0.0000 C   0  0  0  0  0  0  0  0  0  0  0  0
    8.1847   -8.8881    0.0000 C   0  0  0  0  0  0  0  0  0  0  0  0
    7.3635   -8.8935    0.0000 C   0  0  0  0  0  0  0  0  0  0  0  0
  1  2  2  0
  2  3  1  0
  3  6  2  0
  5  4  2  0
  4  1  1  0
  5  6  1  0
  6  7  1  0
  7  8  1  0
  8  9  2  0
  9  5  1  0
 10 11  2  0
 11 12  1  0
 12 20  2  0
 13 10  1  0
  8 10  1  0
 13 19  2  0
 14 15  2  0
 14 16  1  0
  4 14  1  0
 16 17  1  0
 13 18  1  0
 19 20  1  0
 20 21  1  0
 21 22  2  0
 22 23  1  0
 23 24  2  0
 24 19  1  0
M  END
> <chembl_id>
CHEMBL3103513

> <chembl_pref_name>
None

$$$$
CHEMBL298210
     RDKit          2D

 40 45  0  0  0  0  0  0  0  0999 V2000
   12.9167   -5.1792    0.0000 C   0  0  0  0  0  0  0  0  0  0  0  0
    2.2250   -2.2250    0.0000 C   0  0  0  0  0  0  0  0  0  0  0  0
    1.5042   -2.6292    0.0000 N   0  0  0  0  0  0  0  0  0  0  0  0
   12.9125   -5.9000    0.0000 N   0  0  0  0  0  0  0  0  0  0  0  0
   13.5417   -4.8167    0.0000 N   0  0  0  0  0  0  0  0  0  0  0  0
    2.2292   -1.3917    0.0000 N   0  0  0  0  0  0  0  0  0  0  0  0
    0.8042   -1.3917    0.0000 C   0  0  0  0  0  0  0  0  0  0  0  0
   14.1542   -5.9042    0.0000 C   0  0  0  0  0  0  0  0  0  0  0  0
   14.1542   -5.1875    0.0000 C   0  0  0  0  0  0  0  0  0  0  0  0
    1.5167   -0.9875    0.0000 C   0  0  0  0  0  0  0  0  0  0  0  0
   12.2042   -4.7625    0.0000 C   0  0  0  0  0  0  0  0  0  0  0  0
    2.9292   -2.6417    0.0000 C   0  0  0  0  0  0  0  0  0  0  0  0
    9.3542   -3.9167    0.0000 C   0  0  0  0  0  0  0  0  0  0  0  0
    5.7792   -3.4875    0.0000 C   0  0  0  0  0  0  0  0  0  0  0  0
    5.0667   -3.8917    0.0000 N   0  0  0  0  0  0  0  0  0  0  0  0
   10.0667   -3.5125    0.0000 N   0  0  0  0  0  0  0  0  0  0  0  0
    9.3500   -4.7417    0.0000 O   0  0  0  0  0  0  0  0  0  0  0  0
    5.7875   -2.6625    0.0000 O   0  0  0  0  0  0  0  0  0  0  0  0
    3.6500   -2.2292    0.0000 C   0  0  0  0  0  0  0  0  0  0  0  0
   12.2042   -3.9292    0.0000 C   0  0  0  0  0  0  0  0  0  0  0  0
   11.4875   -5.1667    0.0000 C   0  0  0  0  0  0  0  0  0  0  0  0
    2.9250   -3.4667    0.0000 C   0  0  0  0  0  0  0  0  0  0  0  0
   10.7792   -3.9292    0.0000 C   0  0  0  0  0  0  0  0  0  0  0  0
    4.3542   -3.4750    0.0000 C   0  0  0  0  0  0  0  0  0  0  0  0
   11.4917   -3.5167    0.0000 C   0  0  0  0  0  0  0  0  0  0  0  0
    3.6375   -3.8792    0.0000 C   0  0  0  0  0  0  0  0  0  0  0  0
   10.7667   -4.7542    0.0000 C   0  0  0  0  0  0  0  0  0  0  0  0
    4.3542   -2.6417    0.0000 C   0  0  0  0  0  0  0  0  0  0  0  0
   14.7750   -6.2667    0.0000 C   0  0  0  0  0  0  0  0  0  0  0  0
    0.0875   -0.9875    0.0000 C   0  0  0  0  0  0  0  0  0  0  0  0
   14.7792   -4.8292    0.0000 C   0  0  0  0  0  0  0  0  0  0  0  0
    1.5167   -0.1542    0.0000 C   0  0  0  0  0  0  0  0  0  0  0  0
    6.4917   -3.9042    0.0000 C   0  0  0  0  0  0  0  0  0  0  0  0
    8.6417   -3.5042    0.0000 C   0  0  0  0  0  0  0  0  0  0  0  0
    7.9250   -3.9125    0.0000 C   0  0  0  0  0  0  0  0  0  0  0  0
    7.2125   -3.4917    0.0000 C   0  0  0  0  0  0  0  0  0  0  0  0
   15.3917   -5.9125    0.0000 C   0  0  0  0  0  0  0  0  0  0  0  0
    0.8000    0.2583    0.0000 C   0  0  0  0  0  0  0  0  0  0  0  0
    0.0875   -0.1542    0.0000 C   0  0  0  0  0  0  0  0  0  0  0  0
   15.3917   -5.1917    0.0000 C   0  0  0  0  0  0  0  0  0  0  0  0
  2 12  1  0
  3  2  2  0
  4  1  2  0
  5  1  1  0
  6  2  1  0
  7  3  1  0
  8  4  1  0
  9  5  1  0
 10  6  1  0
 11  1  1  0
 12 19  1  0
 13 16  1  0
 14 33  1  0
 15 14  1  0
 16 23  1  0
 17 13  2  0
 18 14  2  0
 19 28  2  0
 20 11  1  0
 21 11  2  0
 22 26  1  0
 23 27  2  0
 24 15  1  0
 25 20  2  0
 26 24  2  0
 27 21  1  0
 28 24  1  0
 29  8  1  0
 30  7  1  0
 31  9  1  0
 32 10  1  0
 33 36  1  0
 34 13  1  0
 35 34  1  0
 36 35  1  0
 37 29  2  0
 38 32  2  0
 39 30  2  0
 40 31  2  0
  9  8  2  0
 25 23  1  0
 37 40  1  0
 12 22  2  0
 10  7  2  0
 38 39  1  0
M  END
> <chembl_id>
CHEMBL298210

> <chembl_pref_name>
None

$$$$
CHEMBL4086891
     RDKit          2D

 45 49  0  0  0  0  0  0  0  0999 V2000
   37.9457   -9.5463    0.0000 O   0  0  0  0  0  0  0  0  0  0  0  0
   37.5413   -8.8405    0.0000 S   0  0  0  0  0  0  0  0  0  0  0  0
   37.1323   -9.5437    0.0000 O   0  0  0  0  0  0  0  0  0  0  0  0
   28.6471   -6.4797    0.0000 O   0  0  0  0  0  0  0  0  0  0  0  0
   29.0598   -7.1896    0.0000 S   0  0  0  0  0  0  0  0  0  0  0  0
   29.4682   -6.4773    0.0000 O   0  0  0  0  0  0  0  0  0  0  0  0
   31.1853   -7.6024    0.0000 C   0  0  0  0  0  0  0  0  0  0  0  0
   31.8930   -7.1938    0.0000 C   0  0  0  0  0  0  0  0  0  0  0  0
   32.6008   -7.6024    0.0000 N   0  0  0  0  0  0  0  0  0  0  0  0
   30.4776   -7.1938    0.0000 C   0  0  0  0  0  0  0  0  0  0  0  0
   29.7699   -7.6024    0.0000 N   0  0  0  0  0  0  0  0  0  0  0  0
   28.3545   -7.6024    0.0000 C   0  0  0  0  0  0  0  0  0  0  0  0
   27.6475   -7.1905    0.0000 C   0  0  0  0  0  0  0  0  0  0  0  0
   26.9402   -7.5984    0.0000 C   0  0  0  0  0  0  0  0  0  0  0  0
   26.9398   -8.4164    0.0000 C   0  0  0  0  0  0  0  0  0  0  0  0
   27.6525   -8.8249    0.0000 C   0  0  0  0  0  0  0  0  0  0  0  0
   28.3568   -8.4146    0.0000 C   0  0  0  0  0  0  0  0  0  0  0  0
   32.5945   -8.4160    0.0000 C   0  0  0  0  0  0  0  0  0  0  0  0
   33.2982   -8.8245    0.0000 C   0  0  0  0  0  0  0  0  0  0  0  0
   34.0083   -8.4194    0.0000 N   0  0  0  0  0  0  0  0  0  0  0  0
   34.0102   -7.6012    0.0000 C   0  0  0  0  0  0  0  0  0  0  0  0
   33.3021   -7.1882    0.0000 C   0  0  0  0  0  0  0  0  0  0  0  0
   34.7144   -8.8306    0.0000 C   0  0  0  0  0  0  0  0  0  0  0  0
   34.7114   -9.6478    0.0000 O   0  0  0  0  0  0  0  0  0  0  0  0
   35.4237   -8.4247    0.0000 C   0  0  0  0  0  0  0  0  0  0  0  0
   36.1298   -8.8360    0.0000 C   0  0  0  0  0  0  0  0  0  0  0  0
   36.8391   -8.4301    0.0000 N   0  0  0  0  0  0  0  0  0  0  0  0
   38.2545   -8.4354    0.0000 C   0  0  0  0  0  0  0  0  0  0  0  0
   38.9576   -8.8472    0.0000 C   0  0  0  0  0  0  0  0  0  0  0  0
   39.6663   -8.4419    0.0000 C   0  0  0  0  0  0  0  0  0  0  0  0
   39.6699   -7.6239    0.0000 C   0  0  0  0  0  0  0  0  0  0  0  0
   38.9587   -7.2128    0.0000 C   0  0  0  0  0  0  0  0  0  0  0  0
   38.2529   -7.6204    0.0000 C   0  0  0  0  0  0  0  0  0  0  0  0
   40.3746   -7.2186    0.0000 C   0  0  0  0  0  0  0  0  0  0  0  0
   41.0816   -7.6306    0.0000 C   0  0  0  0  0  0  0  0  0  0  0  0
   41.7898   -7.2244    0.0000 C   0  0  0  0  0  0  0  0  0  0  0  0
   41.7923   -6.4064    0.0000 C   0  0  0  0  0  0  0  0  0  0  0  0
   41.0806   -5.9962    0.0000 C   0  0  0  0  0  0  0  0  0  0  0  0
   40.3753   -6.4047    0.0000 C   0  0  0  0  0  0  0  0  0  0  0  0
   26.2351   -8.8258    0.0000 C   0  0  0  0  0  0  0  0  0  0  0  0
   25.5265   -8.4164    0.0000 C   0  0  0  0  0  0  0  0  0  0  0  0
   24.8198   -8.8252    0.0000 C   0  0  0  0  0  0  0  0  0  0  0  0
   24.8205   -9.6433    0.0000 C   0  0  0  0  0  0  0  0  0  0  0  0
   25.5337  -10.0508    0.0000 C   0  0  0  0  0  0  0  0  0  0  0  0
   26.2375   -9.6396    0.0000 C   0  0  0  0  0  0  0  0  0  0  0  0
  2  1  2  0
  3  2  2  0
  5  4  2  0
  6  5  2  0
  7  8  1  0
  8  9  1  0
  7 10  1  0
 10 11  1  0
 11  5  1  0
  5 12  1  0
 12 13  2  0
 13 14  1  0
 14 15  2  0
 15 16  1  0
 16 17  2  0
 17 12  1  0
  9 18  1  0
  9 22  1  0
 18 19  1  0
 19 20  1  0
 20 21  1  0
 21 22  1  0
 20 23  1  0
 23 24  2  0
 23 25  1  0
 25 26  1  0
 26 27  1  0
 27  2  1  0
  2 28  1  0
 28 29  2  0
 29 30  1  0
 30 31  2  0
 31 32  1  0
 32 33  2  0
 33 28  1  0
 34 35  2  0
 35 36  1  0
 36 37  2  0
 37 38  1  0
 38 39  2  0
 39 34  1  0
 31 34  1  0
 40 41  2  0
 41 42  1  0
 42 43  2  0
 43 44  1  0
 44 45  2  0
 45 40  1  0
 15 40  1  0
M  END
> <chembl_id>
CHEMBL4086891

> <chembl_pref_name>
None

$$$$
CHEMBL298986
     RDKit          2D

 18 20  0  0  0  0  0  0  0  0999 V2000
    6.9542   -7.0125    0.0000 N   0  0  0  0  0  0  0  0  0  0  0  0
    7.4792   -6.7125    0.0000 C   0  0  0  0  0  0  0  0  0  0  0  0
    7.4792   -6.1125    0.0000 C   0  0  0  0  0  0  0  0  0  0  0  0
    6.4417   -6.7125    0.0000 C   0  0  0  0  0  0  0  0  0  0  0  0
    6.4417   -6.1125    0.0000 N   0  0  0  0  0  0  0  0  0  0  0  0
    6.9542   -5.8125    0.0000 C   0  0  0  0  0  0  0  0  0  0  0  0
    8.0417   -5.9250    0.0000 N   0  0  0  0  0  0  0  0  0  0  0  0
    8.0542   -6.8917    0.0000 N   0  0  0  0  0  0  0  0  0  0  0  0
    8.4000   -6.4042    0.0000 C   0  0  0  0  0  0  0  0  0  0  0  0
    5.9250   -7.0125    0.0000 N   0  0  0  0  0  0  0  0  0  0  0  0
    6.9542   -5.2125    0.0000 O   0  0  0  0  0  0  0  0  0  0  0  0
    5.4042   -6.7125    0.0000 C   0  0  0  0  0  0  0  0  0  0  0  0
    4.3667   -6.1125    0.0000 C   0  0  0  0  0  0  0  0  0  0  0  0
    3.8500   -5.8125    0.0000 F   0  0  0  0  0  0  0  0  0  0  0  0
    4.8917   -7.0125    0.0000 C   0  0  0  0  0  0  0  0  0  0  0  0
    5.4042   -6.1125    0.0000 C   0  0  0  0  0  0  0  0  0  0  0  0
    4.8917   -5.8125    0.0000 C   0  0  0  0  0  0  0  0  0  0  0  0
    4.3667   -6.7167    0.0000 C   0  0  0  0  0  0  0  0  0  0  0  0
  2  1  1  0
  3  2  1  0
  4  1  2  0
  5  4  1  0
  6  5  1  0
  7  3  1  0
  8  2  2  0
  9  8  1  0
 10  4  1  0
 11  6  1  0
 12 10  1  0
 13 17  1  0
 14 13  1  0
 15 12  2  0
 16 12  1  0
 17 16  2  0
 18 15  1  0
  3  6  2  0
  9  7  2  0
 18 13  2  0
M  END
> <chembl_id>
CHEMBL298986

> <chembl_pref_name>
None

$$$$
CHEMBL2059075
     RDKit          2D

 26 27  0  0  0  0  0  0  0  0999 V2000
    9.0985  -21.8719    0.0000 C   0  0  0  0  0  0  0  0  0  0  0  0
    9.8144  -21.4594    0.0000 C   0  0  0  0  0  0  0  0  0  0  0  0
   10.5261  -21.8719    0.0000 C   0  0  0  0  0  0  0  0  0  0  0  0
   11.2419  -21.4594    0.0000 C   0  0  0  0  0  0  0  0  0  0  0  0
   11.2419  -20.6344    0.0000 C   0  0  0  0  0  0  0  0  0  0  0  0
   11.9578  -20.2219    0.0000 C   0  0  0  0  0  0  0  0  0  0  0  0
   12.6695  -20.6344    0.0000 C   0  0  0  0  0  0  0  0  0  0  0  0
   12.6695  -21.4594    0.0000 C   0  0  0  0  0  0  0  0  0  0  0  0
   11.9578  -21.8719    0.0000 C   0  0  0  0  0  0  0  0  0  0  0  0
    9.0985  -22.6969    0.0000 O   0  0  0  0  0  0  0  0  0  0  0  0
    8.3826  -21.4594    0.0000 N   0  0  0  0  0  0  0  0  0  0  0  0
    7.6668  -21.8719    0.0000 C   0  0  0  0  0  0  0  0  0  0  0  0
    6.9551  -21.4594    0.0000 C   0  0  0  0  0  0  0  0  0  0  0  0
    6.2392  -21.8719    0.0000 C   0  0  0  0  0  0  0  0  0  0  0  0
    5.5275  -21.4594    0.0000 C   0  0  0  0  0  0  0  0  0  0  0  0
    4.8116  -22.6969    0.0000 C   0  0  0  0  0  0  0  0  0  0  0  0
    4.0958  -23.1094    0.0000 C   0  0  0  0  0  0  0  0  0  0  0  0
    5.5275  -23.1094    0.0000 O   0  0  0  0  0  0  0  0  0  0  0  0
    4.8116  -21.8719    0.0000 N   0  0  0  0  0  0  0  0  0  0  0  0
    3.3799  -22.6969    0.0000 C   0  0  0  0  0  0  0  0  0  0  0  0
    2.6682  -23.1094    0.0000 C   0  0  0  0  0  0  0  0  0  0  0  0
    1.9524  -22.6969    0.0000 C   0  0  0  0  0  0  0  0  0  0  0  0
    1.9524  -21.8719    0.0000 C   0  0  0  0  0  0  0  0  0  0  0  0
    2.6682  -21.4594    0.0000 C   0  0  0  0  0  0  0  0  0  0  0  0
    3.3799  -21.8719    0.0000 C   0  0  0  0  0  0  0  0  0  0  0  0
    1.2407  -21.4594    0.0000 O   0  0  0  0  0  0  0  0  0  0  0  0
  1  2  1  0
  2  3  2  0
  3  4  1  0
  4  5  1  0
  5  6  2  0
  6  7  1  0
  7  8  2  0
  8  9  1  0
  4  9  2  0
  1 10  2  0
  1 11  1  0
 12 13  1  0
 13 14  1  0
 14 15  1  0
 16 17  1  0
 16 18  2  0
 16 19  1  0
 20 21  1  0
 21 22  2  0
 22 23  1  0
 23 24  2  0
 24 25  1  0
 20 25  2  0
 23 26  1  0
 17 20  1  0
 15 19  1  0
 11 12  1  0
M  END
> <chembl_id>
CHEMBL2059075

> <chembl_pref_name>
PERVIRIDAMIDE

$$$$
CHEMBL4073039
     RDKit          2D

 44 48  0  0  0  0  0  0  0  0999 V2000
    3.9745  -23.2446    0.0000 O   0  0  0  0  0  0  0  0  0  0  0  0
    3.5701  -22.5388    0.0000 S   0  0  0  0  0  0  0  0  0  0  0  0
    3.1611  -23.2420    0.0000 O   0  0  0  0  0  0  0  0  0  0  0  0
   11.6470  -20.1987    0.0000 O   0  0  0  0  0  0  0  0  0  0  0  0
   12.0598  -20.9085    0.0000 S   0  0  0  0  0  0  0  0  0  0  0  0
   12.4682  -20.1962    0.0000 O   0  0  0  0  0  0  0  0  0  0  0  0
    7.1112  -21.3089    0.0000 C   0  0  0  0  0  0  0  0  0  0  0  0
    7.1112  -22.1261    0.0000 N   0  0  0  0  0  0  0  0  0  0  0  0
    7.8165  -22.5305    0.0000 C   0  0  0  0  0  0  0  0  0  0  0  0
    8.5218  -22.1261    0.0000 C   0  0  0  0  0  0  0  0  0  0  0  0
    8.5218  -21.3089    0.0000 N   0  0  0  0  0  0  0  0  0  0  0  0
    7.8165  -20.8962    0.0000 C   0  0  0  0  0  0  0  0  0  0  0  0
    9.2307  -20.9024    0.0000 C   0  0  0  0  0  0  0  0  0  0  0  0
    9.9372  -21.3130    0.0000 C   0  0  0  0  0  0  0  0  0  0  0  0
   10.6461  -20.9065    0.0000 C   0  0  0  0  0  0  0  0  0  0  0  0
   11.3526  -21.3172    0.0000 N   0  0  0  0  0  0  0  0  0  0  0  0
   12.7680  -21.3213    0.0000 C   0  0  0  0  0  0  0  0  0  0  0  0
   12.7604  -22.1395    0.0000 C   0  0  0  0  0  0  0  0  0  0  0  0
   13.4660  -22.5501    0.0000 C   0  0  0  0  0  0  0  0  0  0  0  0
   14.1759  -22.1435    0.0000 C   0  0  0  0  0  0  0  0  0  0  0  0
   14.1757  -21.3221    0.0000 C   0  0  0  0  0  0  0  0  0  0  0  0
   13.4694  -20.9152    0.0000 C   0  0  0  0  0  0  0  0  0  0  0  0
    6.4041  -22.5357    0.0000 C   0  0  0  0  0  0  0  0  0  0  0  0
    5.6958  -22.1281    0.0000 C   0  0  0  0  0  0  0  0  0  0  0  0
    4.9887  -22.5377    0.0000 C   0  0  0  0  0  0  0  0  0  0  0  0
    4.2804  -22.1302    0.0000 N   0  0  0  0  0  0  0  0  0  0  0  0
    2.8650  -22.1322    0.0000 C   0  0  0  0  0  0  0  0  0  0  0  0
    2.8631  -21.3160    0.0000 C   0  0  0  0  0  0  0  0  0  0  0  0
    2.1556  -20.9085    0.0000 C   0  0  0  0  0  0  0  0  0  0  0  0
    1.4498  -21.3182    0.0000 C   0  0  0  0  0  0  0  0  0  0  0  0
    1.4542  -22.1396    0.0000 C   0  0  0  0  0  0  0  0  0  0  0  0
    2.1594  -22.5434    0.0000 C   0  0  0  0  0  0  0  0  0  0  0  0
   14.8814  -22.5511    0.0000 C   0  0  0  0  0  0  0  0  0  0  0  0
   14.8787  -23.3694    0.0000 C   0  0  0  0  0  0  0  0  0  0  0  0
   15.5849  -23.7791    0.0000 C   0  0  0  0  0  0  0  0  0  0  0  0
   16.2943  -23.3716    0.0000 C   0  0  0  0  0  0  0  0  0  0  0  0
   16.2930  -22.5501    0.0000 C   0  0  0  0  0  0  0  0  0  0  0  0
   15.5862  -22.1442    0.0000 C   0  0  0  0  0  0  0  0  0  0  0  0
    0.7396  -20.9161    0.0000 C   0  0  0  0  0  0  0  0  0  0  0  0
    0.7377  -20.0979    0.0000 C   0  0  0  0  0  0  0  0  0  0  0  0
    0.0293  -19.6921    0.0000 C   0  0  0  0  0  0  0  0  0  0  0  0
   -0.6778  -20.1034    0.0000 C   0  0  0  0  0  0  0  0  0  0  0  0
   -0.6720  -20.9248    0.0000 C   0  0  0  0  0  0  0  0  0  0  0  0
    0.0370  -21.3269    0.0000 C   0  0  0  0  0  0  0  0  0  0  0  0
  2  1  2  0
  3  2  2  0
  5  4  2  0
  6  5  2  0
  7  8  1  0
  7 12  1  0
  8  9  1  0
  9 10  1  0
 10 11  1  0
 11 12  1  0
 11 13  1  0
 13 14  1  0
 14 15  1  0
 15 16  1  0
 16  5  1  0
  5 17  1  0
 17 18  2  0
 18 19  1  0
 19 20  2  0
 20 21  1  0
 21 22  2  0
 22 17  1  0
  8 23  1  0
 23 24  1  0
 24 25  1  0
 25 26  1  0
 26  2  1  0
  2 27  1  0
 27 28  2  0
 28 29  1  0
 29 30  2  0
 30 31  1  0
 31 32  2  0
 32 27  1  0
 33 34  2  0
 34 35  1  0
 35 36  2  0
 36 37  1  0
 37 38  2  0
 38 33  1  0
 20 33  1  0
 39 40  2  0
 40 41  1  0
 41 42  2  0
 42 43  1  0
 43 44  2  0
 44 39  1  0
 30 39  1  0
M  END
> <chembl_id>
CHEMBL4073039

> <chembl_pref_name>
None

$$$$
CHEMBL492104
     RDKit          2D

 32 36  0  0  0  0  0  0  0  0999 V2000
   -1.2107   -6.3206    0.0000 C   0  0  0  0  0  0  0  0  0  0  0  0
   -1.2120   -7.1475    0.0000 C   0  0  0  0  0  0  0  0  0  0  0  0
   -0.4995   -7.5602    0.0000 C   0  0  0  0  0  0  0  0  0  0  0  0
   -0.5015   -5.9080    0.0000 C   0  0  0  0  0  0  0  0  0  0  0  0
    0.2161   -6.3165    0.0000 C   0  0  0  0  0  0  0  0  0  0  0  0
    0.2152   -7.1450    0.0000 C   0  0  0  0  0  0  0  0  0  0  0  0
    0.9283   -7.5576    0.0000 N   0  0  0  0  0  0  0  0  0  0  0  0
    0.9301   -5.9008    0.0000 C   0  0  0  0  0  0  0  0  0  0  0  0
    1.6477   -6.3180    0.0000 C   0  0  0  0  0  0  0  0  0  0  0  0
    1.6461   -7.1433    0.0000 C   0  0  0  0  0  0  0  0  0  0  0  0
    2.3588   -7.5555    0.0000 C   0  0  0  0  0  0  0  0  0  0  0  0
    3.0737   -7.1437    0.0000 C   0  0  0  0  0  0  0  0  0  0  0  0
    3.0712   -6.3153    0.0000 C   0  0  0  0  0  0  0  0  0  0  0  0
    2.3580   -5.9068    0.0000 C   0  0  0  0  0  0  0  0  0  0  0  0
    0.9298   -5.0763    0.0000 O   0  0  0  0  0  0  0  0  0  0  0  0
   -1.9244   -7.5581    0.0000 N   0  0  0  0  0  0  0  0  0  0  0  0
   -2.6376   -7.1426    0.0000 C   0  0  0  0  0  0  0  0  0  0  0  0
   -3.3500   -7.5503    0.0000 C   0  0  0  0  0  0  0  0  0  0  0  0
   -3.3555   -8.3750    0.0000 N   0  0  0  0  0  0  0  0  0  0  0  0
   -2.6423   -8.7905    0.0000 C   0  0  0  0  0  0  0  0  0  0  0  0
   -1.9236   -8.3812    0.0000 C   0  0  0  0  0  0  0  0  0  0  0  0
   -1.9251   -5.9089    0.0000 N   0  0  0  0  0  0  0  0  0  0  0  0
    2.3561   -5.0824    0.0000 O   0  0  0  0  0  0  0  0  0  0  0  0
    3.0690   -4.6684    0.0000 C   0  0  0  0  0  0  0  0  0  0  0  0
    3.7881   -7.5552    0.0000 O   0  0  0  0  0  0  0  0  0  0  0  0
    3.7888   -8.3796    0.0000 C   0  0  0  0  0  0  0  0  0  0  0  0
    0.9279   -8.3821    0.0000 C   0  0  0  0  0  0  0  0  0  0  0  0
   -4.0770   -8.7848    0.0000 C   0  0  0  0  0  0  0  0  0  0  0  0
   -4.8285   -8.4456    0.0000 N   0  0  0  0  0  0  0  0  0  0  0  0
   -5.3833   -9.0553    0.0000 C   0  0  0  0  0  0  0  0  0  0  0  0
   -4.9748   -9.7716    0.0000 C   0  0  0  0  0  0  0  0  0  0  0  0
   -4.1675   -9.6042    0.0000 S   0  0  0  0  0  0  0  0  0  0  0  0
  8 15  2  0
 16 17  1  0
  5  8  1  0
  6  7  1  0
  7 10  1  0
  9  8  1  0
  5  4  2  0
  4  1  1  0
 16 21  1  0
 17 18  1  0
 18 19  1  0
 19 20  1  0
 20 21  1  0
  2 16  1  0
  9 10  2  0
  1 22  1  0
  5  6  1  0
 14 23  1  0
 10 11  1  0
 23 24  1  0
 12 25  1  0
 11 12  2  0
 25 26  1  0
  2  3  1  0
  7 27  1  0
 28 29  2  0
 12 13  1  0
  3  6  2  0
 13 14  2  0
 14  9  1  0
  1  2  2  0
 29 30  1  0
 30 31  2  0
 31 32  1  0
 32 28  1  0
 19 28  1  0
M  END
> <chembl_id>
CHEMBL492104

> <chembl_pref_name>
None

$$$$
CHEMBL4089519
     RDKit          2D

 25 28  0  0  0  0  0  0  0  0999 V2000
   26.5494   -6.4458    0.0000 C   0  0  0  0  0  0  0  0  0  0  0  0
   26.0669   -5.7872    0.0000 C   0  0  0  0  0  0  0  0  0  0  0  0
   26.3137   -5.0074    0.0000 C   0  0  0  0  0  0  0  0  0  0  0  0
   25.6498   -4.5340    0.0000 N   0  0  0  0  0  0  0  0  0  0  0  0
   24.9914   -5.0167    0.0000 C   0  0  0  0  0  0  0  0  0  0  0  0
   25.2498   -5.7913    0.0000 C   0  0  0  0  0  0  0  0  0  0  0  0
   24.2116   -4.7699    0.0000 C   0  0  0  0  0  0  0  0  0  0  0  0
   24.0369   -3.9732    0.0000 C   0  0  0  0  0  0  0  0  0  0  0  0
   23.2571   -3.7264    0.0000 C   0  0  0  0  0  0  0  0  0  0  0  0
   22.6521   -4.2762    0.0000 C   0  0  0  0  0  0  0  0  0  0  0  0
   22.8309   -5.0729    0.0000 C   0  0  0  0  0  0  0  0  0  0  0  0
   23.6066   -5.3238    0.0000 C   0  0  0  0  0  0  0  0  0  0  0  0
   25.6456   -3.7168    0.0000 C   0  0  0  0  0  0  0  0  0  0  0  0
   26.3464   -3.3052    0.0000 C   0  0  0  0  0  0  0  0  0  0  0  0
   26.3423   -2.4880    0.0000 C   0  0  0  0  0  0  0  0  0  0  0  0
   25.6332   -2.0825    0.0000 C   0  0  0  0  0  0  0  0  0  0  0  0
   24.9283   -2.4941    0.0000 C   0  0  0  0  0  0  0  0  0  0  0  0
   24.9324   -3.3113    0.0000 C   0  0  0  0  0  0  0  0  0  0  0  0
   27.0884   -4.7531    0.0000 O   0  0  0  0  0  0  0  0  0  0  0  0
   27.3660   -6.4158    0.0000 C   0  0  0  0  0  0  0  0  0  0  0  0
   27.7960   -7.1112    0.0000 C   0  0  0  0  0  0  0  0  0  0  0  0
   28.6119   -7.0816    0.0000 C   0  0  0  0  0  0  0  0  0  0  0  0
   28.9951   -6.3588    0.0000 C   0  0  0  0  0  0  0  0  0  0  0  0
   28.5563   -5.6644    0.0000 C   0  0  0  0  0  0  0  0  0  0  0  0
   27.7419   -5.6974    0.0000 C   0  0  0  0  0  0  0  0  0  0  0  0
  1  2  2  0
  2  3  1  0
  3  4  1  0
  4  5  1  0
  5  6  2  0
  2  6  1  0
  5  7  1  0
  7  8  2  0
  8  9  1  0
  9 10  2  0
 10 11  1  0
 11 12  2  0
  7 12  1  0
  4 13  1  0
 13 14  2  0
 14 15  1  0
 15 16  2  0
 16 17  1  0
 17 18  2  0
 13 18  1  0
  3 19  2  0
  1 20  1  0
 20 21  2  0
 21 22  1  0
 22 23  2  0
 23 24  1  0
 24 25  2  0
 25 20  1  0
M  END
> <chembl_id>
CHEMBL4089519

> <chembl_pref_name>
None

$$$$
CHEMBL3114569
     RDKit          2D

 37 39  0  0  0  0  0  0  0  0999 V2000
    2.5748  -16.8256    0.0000 N   0  0  0  0  0  0  0  0  0  0  0  0
    2.5323  -15.5028    0.0000 N   0  0  0  0  0  0  0  0  0  0  0  0
    2.0761  -16.1797    0.0000 C   0  0  0  0  0  0  0  0  0  0  0  0
    4.7517  -15.3611    0.0000 N   0  0  0  0  0  0  0  0  0  0  0  0
    5.1230  -16.0879    0.0000 C   0  0  0  0  0  0  0  0  0  0  0  0
    4.7902  -16.8333    0.0000 N   0  0  0  0  0  0  0  0  0  0  0  0
    4.0027  -17.0395    0.0000 C   0  0  0  0  0  0  0  0  0  0  0  0
    3.9437  -15.2014    0.0000 C   0  0  0  0  0  0  0  0  0  0  0  0
    3.3437  -16.5480    0.0000 C   0  0  0  0  0  0  0  0  0  0  0  0
    3.3195  -15.7316    0.0000 C   0  0  0  0  0  0  0  0  0  0  0  0
    3.7380  -14.4106    0.0000 O   0  0  0  0  0  0  0  0  0  0  0  0
    5.9399  -16.0665    0.0000 N   0  0  0  0  0  0  0  0  0  0  0  0
    3.8464  -17.8416    0.0000 O   0  0  0  0  0  0  0  0  0  0  0  0
    6.3668  -16.7633    0.0000 C   0  0  0  0  0  0  0  0  0  0  0  0
    7.1838  -16.7419    0.0000 C   0  0  0  0  0  0  0  0  0  0  0  0
    7.6107  -17.4387    0.0000 C   0  0  0  0  0  0  0  0  0  0  0  0
    8.4276  -17.4173    0.0000 C   0  0  0  0  0  0  0  0  0  0  0  0
    8.8546  -18.1141    0.0000 C   0  0  0  0  0  0  0  0  0  0  0  0
    9.6715  -18.0927    0.0000 C   0  0  0  0  0  0  0  0  0  0  0  0
   10.0985  -18.7895    0.0000 C   0  0  0  0  0  0  0  0  0  0  0  0
   10.9154  -18.7681    0.0000 C   0  0  0  0  0  0  0  0  0  0  0  0
    2.2725  -17.5853    0.0000 C   0  0  0  0  0  0  0  0  0  0  0  0
    1.4827  -17.7860    0.0000 O   0  0  0  0  0  0  0  0  0  0  0  0
    1.4302  -18.6015    0.0000 C   0  0  0  0  0  0  0  0  0  0  0  0
    2.1896  -18.9035    0.0000 C   0  0  0  0  0  0  0  0  0  0  0  0
    2.7113  -18.2746    0.0000 C   0  0  0  0  0  0  0  0  0  0  0  0
    0.7396  -19.0383    0.0000 C   0  0  0  0  0  0  0  0  0  0  0  0
    0.0159  -18.6586    0.0000 O   0  0  0  0  0  0  0  0  0  0  0  0
    2.3917  -19.6953    0.0000 O   0  0  0  0  0  0  0  0  0  0  0  0
   11.3424  -19.4649    0.0000 C   0  0  0  0  0  0  0  0  0  0  0  0
   12.1593  -19.4435    0.0000 C   0  0  0  0  0  0  0  0  0  0  0  0
   12.5862  -20.1403    0.0000 C   0  0  0  0  0  0  0  0  0  0  0  0
   13.4031  -20.1189    0.0000 C   0  0  0  0  0  0  0  0  0  0  0  0
   13.8301  -20.8157    0.0000 C   0  0  0  0  0  0  0  0  0  0  0  0
   14.6470  -20.7943    0.0000 C   0  0  0  0  0  0  0  0  0  0  0  0
   15.0740  -21.4911    0.0000 C   0  0  0  0  0  0  0  0  0  0  0  0
   15.8909  -21.4697    0.0000 C   0  0  0  0  0  0  0  0  0  0  0  0
  1  9  1  0
 10  2  1  0
  2  3  2  0
  3  1  1  0
  4  5  2  0
  5  6  1  0
  6  7  1  0
  4  8  1  0
  7  9  1  0
  8 10  1  0
  9 10  2  0
  8 11  2  0
  5 12  1  0
  7 13  2  0
 12 14  1  0
 14 15  1  0
 15 16  1  0
 16 17  1  0
 17 18  1  0
 18 19  1  0
 19 20  1  0
 20 21  1  0
 22  1  1  6
 22 23  1  0
 23 24  1  0
 24 25  1  0
 25 26  1  0
 26 22  1  0
 24 27  1  1
 27 28  1  0
 25 29  1  6
 21 30  1  0
 30 31  1  0
 31 32  1  0
 32 33  1  0
 33 34  1  0
 34 35  1  0
 35 36  1  0
 36 37  1  0
M  END
> <chembl_id>
CHEMBL3114569

> <chembl_pref_name>
None

$$$$
CHEMBL1378059
     RDKit          2D

 25 27  0  0  0  0  0  0  0  0999 V2000
   -1.7888    3.5404    0.0000 O   0  0  0  0  0  0  0  0  0  0  0  0
   -2.5033    2.3029    0.0000 O   0  0  0  0  0  0  0  0  0  0  0  0
    2.7326   -4.4637    0.0000 O   0  0  0  0  0  0  0  0  0  0  0  0
   -1.0743    1.4779    0.0000 N   0  0  0  0  0  0  0  0  0  0  0  0
   -0.4069    0.9930    0.0000 N   0  0  0  0  0  0  0  0  0  0  0  0
   -1.4868    0.2084    0.0000 N   0  0  0  0  0  0  0  0  0  0  0  0
   -1.7418    0.9930    0.0000 N   0  0  0  0  0  0  0  0  0  0  0  0
   -0.6618    0.2084    0.0000 C   0  0  0  0  0  0  0  0  0  0  0  0
   -0.1769   -0.4590    0.0000 C   0  0  0  0  0  0  0  0  0  0  0  0
   -1.0743    2.3029    0.0000 C   0  0  0  0  0  0  0  0  0  0  0  0
    0.7929   -1.7939    0.0000 C   0  0  0  0  0  0  0  0  0  0  0  0
    0.6436   -0.3728    0.0000 C   0  0  0  0  0  0  0  0  0  0  0  0
   -0.5125   -1.2127    0.0000 C   0  0  0  0  0  0  0  0  0  0  0  0
    1.2779   -2.4614    0.0000 C   0  0  0  0  0  0  0  0  0  0  0  0
    1.1285   -1.0402    0.0000 C   0  0  0  0  0  0  0  0  0  0  0  0
   -0.0275   -1.8802    0.0000 C   0  0  0  0  0  0  0  0  0  0  0  0
   -1.7888    2.7154    0.0000 C   0  0  0  0  0  0  0  0  0  0  0  0
   -0.3598    2.7154    0.0000 C   0  0  0  0  0  0  0  0  0  0  0  0
    2.0984   -2.3751    0.0000 C   0  0  0  0  0  0  0  0  0  0  0  0
    0.9423   -3.2150    0.0000 C   0  0  0  0  0  0  0  0  0  0  0  0
    2.2477   -3.7962    0.0000 C   0  0  0  0  0  0  0  0  0  0  0  0
    2.5833   -3.0426    0.0000 C   0  0  0  0  0  0  0  0  0  0  0  0
    1.4272   -3.8825    0.0000 C   0  0  0  0  0  0  0  0  0  0  0  0
   -0.3598    3.5404    0.0000 C   0  0  0  0  0  0  0  0  0  0  0  0
    3.5531   -4.3774    0.0000 C   0  0  0  0  0  0  0  0  0  0  0  0
  1 17  2  0
  2 17  1  0
  3 21  1  0
  3 25  1  0
  4  5  1  0
  4  7  1  0
  4 10  1  0
  5  8  2  0
  6  7  2  0
  6  8  1  0
  8  9  1  0
  9 12  2  0
  9 13  1  0
 10 17  1  0
 10 18  1  0
 11 14  1  0
 11 15  2  0
 11 16  1  0
 12 15  1  0
 13 16  2  0
 14 19  2  0
 14 20  1  0
 18 24  1  0
 19 22  1  0
 20 23  2  0
 21 22  2  0
 21 23  1  0
M  END
> <chembl_id>
CHEMBL1378059

> <chembl_pref_name>
None

$$$$
CHEMBL3120368
     RDKit          2D

 31 34  0  0  0  0  0  0  0  0999 V2000
    5.2402  -18.3372    0.0000 C   0  0  0  0  0  0  0  0  0  0  0  0
    5.2390  -19.1526    0.0000 C   0  0  0  0  0  0  0  0  0  0  0  0
    5.9512  -19.5616    0.0000 C   0  0  0  0  0  0  0  0  0  0  0  0
    5.9494  -17.9284    0.0000 C   0  0  0  0  0  0  0  0  0  0  0  0
    6.6539  -18.3336    0.0000 C   0  0  0  0  0  0  0  0  0  0  0  0
    6.6541  -19.1527    0.0000 C   0  0  0  0  0  0  0  0  0  0  0  0
    7.4330  -19.4027    0.0000 N   0  0  0  0  0  0  0  0  0  0  0  0
    7.9085  -18.7490    0.0000 C   0  0  0  0  0  0  0  0  0  0  0  0
    7.4326  -18.0832    0.0000 C   0  0  0  0  0  0  0  0  0  0  0  0
    7.6849  -17.3018    0.0000 C   0  0  0  0  0  0  0  0  0  0  0  0
    8.4800  -17.1317    0.0000 C   0  0  0  0  0  0  0  0  0  0  0  0
    8.7323  -16.3544    0.0000 O   0  0  0  0  0  0  0  0  0  0  0  0
    9.0270  -17.7388    0.0000 O   0  0  0  0  0  0  0  0  0  0  0  0
    7.6816  -20.1840    0.0000 C   0  0  0  0  0  0  0  0  0  0  0  0
    8.4804  -20.3581    0.0000 C   0  0  0  0  0  0  0  0  0  0  0  0
    8.7312  -21.1321    0.0000 C   0  0  0  0  0  0  0  0  0  0  0  0
    9.5262  -21.3054    0.0000 C   0  0  0  0  0  0  0  0  0  0  0  0
   10.0759  -20.7050    0.0000 C   0  0  0  0  0  0  0  0  0  0  0  0
    9.8234  -19.9238    0.0000 C   0  0  0  0  0  0  0  0  0  0  0  0
    9.0291  -19.7491    0.0000 C   0  0  0  0  0  0  0  0  0  0  0  0
    4.5288  -19.5610    0.0000 C   0  0  0  0  0  0  0  0  0  0  0  0
    3.8252  -19.1542    0.0000 C   0  0  0  0  0  0  0  0  0  0  0  0
    3.1135  -19.5616    0.0000 C   0  0  0  0  0  0  0  0  0  0  0  0
    3.1124  -20.3838    0.0000 C   0  0  0  0  0  0  0  0  0  0  0  0
    3.8248  -20.7928    0.0000 C   0  0  0  0  0  0  0  0  0  0  0  0
    4.5294  -20.3831    0.0000 C   0  0  0  0  0  0  0  0  0  0  0  0
   10.3748  -19.3217    0.0000 Cl  0  0  0  0  0  0  0  0  0  0  0  0
    2.4069  -19.1512    0.0000 N   0  0  0  0  0  0  0  0  0  0  0  0
    3.8260  -21.6143    0.0000 N   0  0  0  0  0  0  0  0  0  0  0  0
    4.5348  -22.0210    0.0000 O   0  0  0  0  0  0  0  0  0  0  0  0
    3.1194  -22.0248    0.0000 O   0  0  0  0  0  0  0  0  0  0  0  0
  1  2  2  0
  2  3  1  0
  3  6  2  0
  5  4  2  0
  4  1  1  0
  5  6  1  0
  6  7  1  0
  7  8  1  0
  8  9  2  0
  9  5  1  0
  9 10  1  0
 10 11  1  0
 11 12  2  0
 11 13  1  0
  7 14  1  0
 14 15  1  0
 15 16  2  0
 16 17  1  0
 17 18  2  0
 18 19  1  0
 19 20  2  0
 20 15  1  0
 21 22  2  0
 22 23  1  0
 23 24  2  0
 24 25  1  0
 25 26  2  0
 26 21  1  0
  2 21  1  0
 19 27  1  0
 23 28  1  0
 29 30  2  0
 29 31  1  0
 25 29  1  0
M  CHG  2  29   1  31  -1
M  END
> <chembl_id>
CHEMBL3120368

> <chembl_pref_name>
None

$$$$
CHEMBL4517025
     RDKit          2D

 21 24  0  0  0  0  0  0  0  0999 V2000
    9.6809  -16.6815    0.0000 N   0  0  0  0  0  0  0  0  0  0  0  0
    9.0180  -16.1994    0.0000 N   0  0  0  0  0  0  0  0  0  0  0  0
    8.3592  -16.6815    0.0000 C   0  0  0  0  0  0  0  0  0  0  0  0
    9.4266  -17.4582    0.0000 C   0  0  0  0  0  0  0  0  0  0  0  0
    8.6094  -17.4582    0.0000 N   0  0  0  0  0  0  0  0  0  0  0  0
    8.3568  -18.2354    0.0000 N   0  0  0  0  0  0  0  0  0  0  0  0
    9.0180  -18.7158    0.0000 C   0  0  0  0  0  0  0  0  0  0  0  0
    9.6790  -18.2354    0.0000 S   0  0  0  0  0  0  0  0  0  0  0  0
    9.0180  -19.5330    0.0000 C   0  0  0  0  0  0  0  0  0  0  0  0
    8.3106  -19.9383    0.0000 C   0  0  0  0  0  0  0  0  0  0  0  0
    8.3102  -20.7547    0.0000 C   0  0  0  0  0  0  0  0  0  0  0  0
    9.0185  -21.1641    0.0000 C   0  0  0  0  0  0  0  0  0  0  0  0
    9.7285  -20.7511    0.0000 C   0  0  0  0  0  0  0  0  0  0  0  0
    9.7254  -19.9360    0.0000 C   0  0  0  0  0  0  0  0  0  0  0  0
   10.4311  -19.5240    0.0000 O   0  0  0  0  0  0  0  0  0  0  0  0
   11.1408  -19.9292    0.0000 C   0  0  0  0  0  0  0  0  0  0  0  0
   11.1406  -20.7445    0.0000 C   0  0  0  0  0  0  0  0  0  0  0  0
   11.8494  -21.1496    0.0000 C   0  0  0  0  0  0  0  0  0  0  0  0
   12.5561  -20.7376    0.0000 C   0  0  0  0  0  0  0  0  0  0  0  0
   12.5495  -19.9162    0.0000 C   0  0  0  0  0  0  0  0  0  0  0  0
   11.8401  -19.5148    0.0000 C   0  0  0  0  0  0  0  0  0  0  0  0
  4  1  2  0
  1  2  1  0
  2  3  2  0
  3  5  1  0
  4  5  1  0
  5  6  1  0
  6  7  2  0
  7  8  1  0
  8  4  1  0
  7  9  1  0
  9 10  2  0
 10 11  1  0
 11 12  2  0
 12 13  1  0
 13 14  2  0
 14  9  1  0
 14 15  1  0
 15 16  1  0
 16 17  2  0
 17 18  1  0
 18 19  2  0
 19 20  1  0
 20 21  2  0
 21 16  1  0
M  END
> <chembl_id>
CHEMBL4517025

> <chembl_pref_name>
None

$$$$
CHEMBL3120362
     RDKit          2D

 21 23  0  0  0  0  0  0  0  0999 V2000
   11.2288  -10.2850    0.0000 C   0  0  0  0  0  0  0  0  0  0  0  0
   11.2276  -11.1004    0.0000 C   0  0  0  0  0  0  0  0  0  0  0  0
   11.9398  -11.5094    0.0000 C   0  0  0  0  0  0  0  0  0  0  0  0
   11.9380   -9.8762    0.0000 C   0  0  0  0  0  0  0  0  0  0  0  0
   12.6425  -10.2814    0.0000 C   0  0  0  0  0  0  0  0  0  0  0  0
   12.6428  -11.1005    0.0000 C   0  0  0  0  0  0  0  0  0  0  0  0
   13.4216  -11.3505    0.0000 N   0  0  0  0  0  0  0  0  0  0  0  0
   13.8971  -10.6967    0.0000 C   0  0  0  0  0  0  0  0  0  0  0  0
   13.4212  -10.0310    0.0000 C   0  0  0  0  0  0  0  0  0  0  0  0
   13.6735   -9.2496    0.0000 C   0  0  0  0  0  0  0  0  0  0  0  0
   14.4686   -9.0794    0.0000 C   0  0  0  0  0  0  0  0  0  0  0  0
   14.7209   -8.3022    0.0000 O   0  0  0  0  0  0  0  0  0  0  0  0
   15.0156   -9.6865    0.0000 O   0  0  0  0  0  0  0  0  0  0  0  0
   13.6702  -12.1318    0.0000 C   0  0  0  0  0  0  0  0  0  0  0  0
   14.4690  -12.3058    0.0000 C   0  0  0  0  0  0  0  0  0  0  0  0
   14.7198  -13.0799    0.0000 C   0  0  0  0  0  0  0  0  0  0  0  0
   15.5148  -13.2532    0.0000 C   0  0  0  0  0  0  0  0  0  0  0  0
   16.0645  -12.6528    0.0000 C   0  0  0  0  0  0  0  0  0  0  0  0
   15.8120  -11.8715    0.0000 C   0  0  0  0  0  0  0  0  0  0  0  0
   15.0177  -11.6969    0.0000 C   0  0  0  0  0  0  0  0  0  0  0  0
   16.3614  -11.2666    0.0000 N   0  0  0  0  0  0  0  0  0  0  0  0
  1  2  2  0
  2  3  1  0
  3  6  2  0
  5  4  2  0
  4  1  1  0
  5  6  1  0
  6  7  1  0
  7  8  1  0
  8  9  2  0
  9  5  1  0
  9 10  1  0
 10 11  1  0
 11 12  2  0
 11 13  1  0
  7 14  1  0
 14 15  1  0
 15 16  2  0
 16 17  1  0
 17 18  2  0
 18 19  1  0
 19 20  2  0
 20 15  1  0
 19 21  1  0
M  END
> <chembl_id>
CHEMBL3120362

> <chembl_pref_name>
None

$$$$
CHEMBL464649
     RDKit          2D

 34 38  0  0  0  0  0  0  0  0999 V2000
    6.8230  -19.3651    0.0000 C   0  0  0  0  0  0  0  0  0  0  0  0
    7.5375  -18.9540    0.0000 C   0  0  0  0  0  0  0  0  0  0  0  0
    6.8209  -17.7152    0.0000 C   0  0  0  0  0  0  0  0  0  0  0  0
    7.5392  -18.1282    0.0000 C   0  0  0  0  0  0  0  0  0  0  0  0
    7.5345  -16.4741    0.0000 C   0  0  0  0  0  0  0  0  0  0  0  0
    6.8155  -16.8890    0.0000 C   0  0  0  0  0  0  0  0  0  0  0  0
    8.2527  -16.8871    0.0000 C   0  0  0  0  0  0  0  0  0  0  0  0
    8.2496  -17.7161    0.0000 C   0  0  0  0  0  0  0  0  0  0  0  0
    8.9621  -18.1310    0.0000 C   0  0  0  0  0  0  0  0  0  0  0  0
    9.6822  -17.7215    0.0000 C   0  0  0  0  0  0  0  0  0  0  0  0
    8.9682  -16.4729    0.0000 C   0  0  0  0  0  0  0  0  0  0  0  0
    9.6859  -16.8980    0.0000 C   0  0  0  0  0  0  0  0  0  0  0  0
   10.4088  -16.4914    0.0000 C   0  0  0  0  0  0  0  0  0  0  0  0
   10.4205  -15.6579    0.0000 C   0  0  0  0  0  0  0  0  0  0  0  0
    9.7029  -15.2328    0.0000 C   0  0  0  0  0  0  0  0  0  0  0  0
    8.9736  -15.6410    0.0000 C   0  0  0  0  0  0  0  0  0  0  0  0
    6.1029  -19.7717    0.0000 C   0  0  0  0  0  0  0  0  0  0  0  0
    6.1029  -17.3105    0.0000 H   0  0  0  0  0  0  0  0  0  0  0  0
    6.8139  -18.5320    0.0000 C   0  0  0  0  0  0  0  0  0  0  0  0
    8.2405  -18.5320    0.0000 C   0  0  0  0  0  0  0  0  0  0  0  0
   10.3918  -17.3059    0.0000 C   0  0  0  0  0  0  0  0  0  0  0  0
    8.2451  -16.0662    0.0000 C   0  0  0  0  0  0  0  0  0  0  0  0
   10.2778  -14.6488    0.0000 C   0  0  0  0  0  0  0  0  0  0  0  0
    9.1156  -14.6488    0.0000 C   0  0  0  0  0  0  0  0  0  0  0  0
    7.5340  -17.3059    0.0000 H   0  0  0  0  0  0  0  0  0  0  0  0
    8.9607  -17.2922    0.0000 H   0  0  0  0  0  0  0  0  0  0  0  0
    6.1120  -18.9559    0.0000 C   0  0  0  0  0  0  0  0  0  0  0  0
    6.1099  -18.1309    0.0000 C   0  0  0  0  0  0  0  0  0  0  0  0
    5.3984  -17.7226    0.0000 C   0  0  0  0  0  0  0  0  0  0  0  0
    4.6844  -18.1345    0.0000 C   0  0  0  0  0  0  0  0  0  0  0  0
    4.6865  -18.9595    0.0000 C   0  0  0  0  0  0  0  0  0  0  0  0
    5.4026  -19.3725    0.0000 C   0  0  0  0  0  0  0  0  0  0  0  0
    3.9767  -19.3708    0.0000 O   0  0  0  0  0  0  0  0  0  0  0  0
    5.4058  -20.1929    0.0000 C   0  0  0  0  0  0  0  0  0  0  0  0
 13 14  1  0
 14 15  1  0
 15 16  1  0
  7  8  1  0
 27 17  1  1
  2  4  1  0
 28 18  1  6
  3  4  1  0
  3 19  1  1
  8 20  1  1
 28  3  1  0
 12 21  1  1
  7 11  1  0
  7 22  1  6
  8  9  1  0
 15 23  1  0
  9 10  1  0
 15 24  1  0
 10 12  1  0
  4 25  1  6
 11 12  1  0
 11 26  1  1
 27 28  1  0
 27  1  1  0
  1  2  1  0
  3  6  1  0
  4  8  1  0
  7  5  1  0
  5  6  1  0
 27 32  1  0
 28 29  1  0
 29 30  1  0
 30 31  1  0
 31 32  1  0
 11 16  1  0
 31 33  1  1
 12 13  1  0
 32 34  1  1
M  END
> <chembl_id>
CHEMBL464649

> <chembl_pref_name>
EPIFRIEDELINOL

$$$$
CHEMBL3120369
     RDKit          2D

 29 32  0  0  0  0  0  0  0  0999 V2000
   10.5313  -18.9893    0.0000 C   0  0  0  0  0  0  0  0  0  0  0  0
   10.5301  -19.8048    0.0000 C   0  0  0  0  0  0  0  0  0  0  0  0
   11.2423  -20.2137    0.0000 C   0  0  0  0  0  0  0  0  0  0  0  0
   11.2405  -18.5805    0.0000 C   0  0  0  0  0  0  0  0  0  0  0  0
   11.9450  -18.9857    0.0000 C   0  0  0  0  0  0  0  0  0  0  0  0
   11.9453  -19.8048    0.0000 C   0  0  0  0  0  0  0  0  0  0  0  0
   12.7241  -20.0548    0.0000 N   0  0  0  0  0  0  0  0  0  0  0  0
   13.1996  -19.4011    0.0000 C   0  0  0  0  0  0  0  0  0  0  0  0
   12.7237  -18.7353    0.0000 C   0  0  0  0  0  0  0  0  0  0  0  0
   12.9760  -17.9539    0.0000 C   0  0  0  0  0  0  0  0  0  0  0  0
   13.7711  -17.7838    0.0000 C   0  0  0  0  0  0  0  0  0  0  0  0
   14.0234  -17.0065    0.0000 O   0  0  0  0  0  0  0  0  0  0  0  0
   14.3181  -18.3909    0.0000 O   0  0  0  0  0  0  0  0  0  0  0  0
   12.9727  -20.8361    0.0000 C   0  0  0  0  0  0  0  0  0  0  0  0
   13.7715  -21.0102    0.0000 C   0  0  0  0  0  0  0  0  0  0  0  0
   14.0223  -21.7842    0.0000 C   0  0  0  0  0  0  0  0  0  0  0  0
   14.8173  -21.9575    0.0000 C   0  0  0  0  0  0  0  0  0  0  0  0
   15.3670  -21.3571    0.0000 C   0  0  0  0  0  0  0  0  0  0  0  0
   15.1145  -20.5759    0.0000 C   0  0  0  0  0  0  0  0  0  0  0  0
   14.3202  -20.4012    0.0000 C   0  0  0  0  0  0  0  0  0  0  0  0
    9.8199  -20.2131    0.0000 C   0  0  0  0  0  0  0  0  0  0  0  0
    9.1163  -19.8063    0.0000 C   0  0  0  0  0  0  0  0  0  0  0  0
    8.4046  -20.2137    0.0000 C   0  0  0  0  0  0  0  0  0  0  0  0
    8.4036  -21.0359    0.0000 C   0  0  0  0  0  0  0  0  0  0  0  0
    9.1159  -21.4449    0.0000 C   0  0  0  0  0  0  0  0  0  0  0  0
    9.8206  -21.0352    0.0000 C   0  0  0  0  0  0  0  0  0  0  0  0
   15.6659  -19.9738    0.0000 Cl  0  0  0  0  0  0  0  0  0  0  0  0
    7.6980  -19.8033    0.0000 N   0  0  0  0  0  0  0  0  0  0  0  0
    9.1182  -22.2621    0.0000 N   0  0  0  0  0  0  0  0  0  0  0  0
  1  2  2  0
  2  3  1  0
  3  6  2  0
  5  4  2  0
  4  1  1  0
  5  6  1  0
  6  7  1  0
  7  8  1  0
  8  9  2  0
  9  5  1  0
  9 10  1  0
 10 11  1  0
 11 12  2  0
 11 13  1  0
  7 14  1  0
 14 15  1  0
 15 16  2  0
 16 17  1  0
 17 18  2  0
 18 19  1  0
 19 20  2  0
 20 15  1  0
 21 22  2  0
 22 23  1  0
 23 24  2  0
 24 25  1  0
 25 26  2  0
 26 21  1  0
  2 21  1  0
 19 27  1  0
 23 28  1  0
 25 29  1  0
M  END
> <chembl_id>
CHEMBL3120369

> <chembl_pref_name>
None

$$$$
CHEMBL4459234
     RDKit          2D

 17 20  0  0  0  0  0  0  0  0999 V2000
   21.6705  -16.2646    0.0000 N   0  0  0  0  0  0  0  0  0  0  0  0
   21.0076  -15.7825    0.0000 N   0  0  0  0  0  0  0  0  0  0  0  0
   20.3488  -16.2646    0.0000 C   0  0  0  0  0  0  0  0  0  0  0  0
   21.4162  -17.0414    0.0000 C   0  0  0  0  0  0  0  0  0  0  0  0
   20.5990  -17.0414    0.0000 N   0  0  0  0  0  0  0  0  0  0  0  0
   20.3464  -17.8186    0.0000 N   0  0  0  0  0  0  0  0  0  0  0  0
   21.0076  -18.2990    0.0000 C   0  0  0  0  0  0  0  0  0  0  0  0
   21.6686  -17.8186    0.0000 S   0  0  0  0  0  0  0  0  0  0  0  0
   21.0076  -19.1162    0.0000 C   0  0  0  0  0  0  0  0  0  0  0  0
   20.3002  -19.5215    0.0000 C   0  0  0  0  0  0  0  0  0  0  0  0
   20.2998  -20.3379    0.0000 C   0  0  0  0  0  0  0  0  0  0  0  0
   21.0081  -20.7473    0.0000 C   0  0  0  0  0  0  0  0  0  0  0  0
   21.7150  -19.5192    0.0000 C   0  0  0  0  0  0  0  0  0  0  0  0
   21.7220  -20.3335    0.0000 C   0  0  0  0  0  0  0  0  0  0  0  0
   22.4986  -20.5785    0.0000 C   0  0  0  0  0  0  0  0  0  0  0  0
   22.9716  -19.9155    0.0000 C   0  0  0  0  0  0  0  0  0  0  0  0
   22.4872  -19.2610    0.0000 O   0  0  0  0  0  0  0  0  0  0  0  0
  4  1  2  0
  1  2  1  0
  2  3  2  0
  3  5  1  0
  4  5  1  0
  5  6  1  0
  6  7  2  0
  7  8  1  0
  8  4  1  0
  7  9  1  0
  9 10  2  0
 10 11  1  0
 11 12  2  0
 12 14  1  0
 13  9  1  0
 13 14  2  0
 14 15  1  0
 15 16  1  0
 16 17  1  0
 17 13  1  0
M  END
> <chembl_id>
CHEMBL4459234

> <chembl_pref_name>
None

$$$$
CHEMBL4461656
     RDKit          2D

 15 17  0  0  0  0  0  0  0  0999 V2000
   27.2670  -16.9126    0.0000 N   0  0  0  0  0  0  0  0  0  0  0  0
   26.6041  -16.4305    0.0000 N   0  0  0  0  0  0  0  0  0  0  0  0
   25.9453  -16.9126    0.0000 C   0  0  0  0  0  0  0  0  0  0  0  0
   27.0127  -17.6893    0.0000 C   0  0  0  0  0  0  0  0  0  0  0  0
   26.1955  -17.6893    0.0000 N   0  0  0  0  0  0  0  0  0  0  0  0
   25.9429  -18.4665    0.0000 N   0  0  0  0  0  0  0  0  0  0  0  0
   26.6041  -18.9469    0.0000 C   0  0  0  0  0  0  0  0  0  0  0  0
   27.2651  -18.4665    0.0000 S   0  0  0  0  0  0  0  0  0  0  0  0
   26.6041  -19.7641    0.0000 C   0  0  0  0  0  0  0  0  0  0  0  0
   25.8967  -20.1694    0.0000 C   0  0  0  0  0  0  0  0  0  0  0  0
   25.8964  -20.9859    0.0000 C   0  0  0  0  0  0  0  0  0  0  0  0
   26.6046  -21.3952    0.0000 C   0  0  0  0  0  0  0  0  0  0  0  0
   27.3147  -20.9822    0.0000 C   0  0  0  0  0  0  0  0  0  0  0  0
   27.3115  -20.1671    0.0000 C   0  0  0  0  0  0  0  0  0  0  0  0
   28.0172  -19.7552    0.0000 O   0  0  0  0  0  0  0  0  0  0  0  0
  4  1  2  0
  1  2  1  0
  2  3  2  0
  3  5  1  0
  4  5  1  0
  5  6  1  0
  6  7  2  0
  7  8  1  0
  8  4  1  0
  7  9  1  0
  9 10  2  0
 10 11  1  0
 11 12  2  0
 12 13  1  0
 13 14  2  0
 14  9  1  0
 14 15  1  0
M  END
> <chembl_id>
CHEMBL4461656

> <chembl_pref_name>
None

$$$$
CHEMBL1813571
     RDKit          2D

 61 65  0  0  0  0  0  0  0  0999 V2000
    2.9156  -25.4459    0.0000 O   0  0  0  0  0  0  0  0  0  0  0  0
    2.1196  -25.2333    0.0000 S   0  0  0  0  0  0  0  0  0  0  0  0
    2.3335  -26.0289    0.0000 O   0  0  0  0  0  0  0  0  0  0  0  0
   -0.7188  -21.9406    0.0000 O   0  0  0  0  0  0  0  0  0  0  0  0
   -1.4333  -21.5219    0.0000 C   0  0  0  0  0  0  0  0  0  0  0  0
   -2.8516  -20.6911    0.0000 N   0  0  0  0  0  0  0  0  0  0  0  0
   -2.8527  -21.5198    0.0000 C   0  0  0  0  0  0  0  0  0  0  0  0
   -2.1430  -21.9297    0.0000 C   0  0  0  0  0  0  0  0  0  0  0  0
   -2.1381  -20.2782    0.0000 C   0  0  0  0  0  0  0  0  0  0  0  0
   -1.4276  -20.6936    0.0000 C   0  0  0  0  0  0  0  0  0  0  0  0
   -0.7178  -20.2885    0.0000 C   0  0  0  0  0  0  0  0  0  0  0  0
   -0.7116  -19.4663    0.0000 C   0  0  0  0  0  0  0  0  0  0  0  0
   -1.4288  -19.0554    0.0000 C   0  0  0  0  0  0  0  0  0  0  0  0
   -2.1361  -19.4616    0.0000 C   0  0  0  0  0  0  0  0  0  0  0  0
   -1.4303  -18.2302    0.0000 O   0  0  0  0  0  0  0  0  0  0  0  0
   -0.7129  -17.8162    0.0000 C   0  0  0  0  0  0  0  0  0  0  0  0
   -3.5687  -21.9323    0.0000 C   0  0  0  0  0  0  0  0  0  0  0  0
   -4.2838  -21.5162    0.0000 C   0  0  0  0  0  0  0  0  0  0  0  0
   -4.9991  -21.9319    0.0000 C   0  0  0  0  0  0  0  0  0  0  0  0
   -4.9998  -22.7542    0.0000 C   0  0  0  0  0  0  0  0  0  0  0  0
   -4.2803  -23.1667    0.0000 C   0  0  0  0  0  0  0  0  0  0  0  0
   -3.5653  -22.7556    0.0000 C   0  0  0  0  0  0  0  0  0  0  0  0
   -0.7207  -22.7658    0.0000 C   0  0  0  0  0  0  0  0  0  0  0  0
   -1.4429  -23.1700    0.0000 C   0  0  0  0  0  0  0  0  0  0  0  0
   -1.4453  -23.9940    0.0000 C   0  0  0  0  0  0  0  0  0  0  0  0
   -0.7315  -24.4089    0.0000 C   0  0  0  0  0  0  0  0  0  0  0  0
   -0.0171  -23.9950    0.0000 C   0  0  0  0  0  0  0  0  0  0  0  0
   -0.0158  -23.1730    0.0000 C   0  0  0  0  0  0  0  0  0  0  0  0
   -0.7360  -25.2341    0.0000 C   0  0  0  0  0  0  0  0  0  0  0  0
   -2.1677  -25.2366    0.0000 C   0  0  0  0  0  0  0  0  0  0  0  0
   -2.8819  -25.6454    0.0000 C   0  0  0  0  0  0  0  0  0  0  0  0
   -2.1633  -24.4114    0.0000 O   0  0  0  0  0  0  0  0  0  0  0  0
   -2.8863  -26.4706    0.0000 C   0  0  0  0  0  0  0  0  0  0  0  0
   -3.6004  -26.8834    0.0000 C   0  0  0  0  0  0  0  0  0  0  0  0
   -2.1725  -26.8871    0.0000 C   0  0  0  0  0  0  0  0  0  0  0  0
   -2.8928  -27.2973    0.0000 C   0  0  0  0  0  0  0  0  0  0  0  0
   -0.0264  -25.6507    0.0000 C   0  0  0  0  0  0  0  0  0  0  0  0
    0.6919  -25.2377    0.0000 O   0  0  0  0  0  0  0  0  0  0  0  0
    0.6872  -26.8965    0.0000 C   0  0  0  0  0  0  0  0  0  0  0  0
    0.6827  -27.7217    0.0000 C   0  0  0  0  0  0  0  0  0  0  0  0
    1.4055  -26.4794    0.0000 C   0  0  0  0  0  0  0  0  0  0  0  0
    1.4007  -28.1382    0.0000 C   0  0  0  0  0  0  0  0  0  0  0  0
    1.3962  -28.9633    0.0000 C   0  0  0  0  0  0  0  0  0  0  0  0
    2.1280  -26.9012    0.0000 O   0  0  0  0  0  0  0  0  0  0  0  0
    1.4065  -25.6459    0.0000 N   0  0  0  0  0  0  0  0  0  0  0  0
    2.1185  -24.2547    0.0000 C   0  0  0  0  0  0  0  0  0  0  0  0
    1.4916  -23.7221    0.0000 C   0  0  0  0  0  0  0  0  0  0  0  0
    2.0261  -23.0053    0.0000 C   0  0  0  0  0  0  0  0  0  0  0  0
    0.4034  -22.5318    0.0000 C   0  0  0  0  0  0  0  0  0  0  0  0
    1.1484  -22.4993    0.0000 C   0  0  0  0  0  0  0  0  0  0  0  0
    1.7110  -22.0658    0.0000 C   0  0  0  0  0  0  0  0  0  0  0  0
   -4.3096  -25.6437    0.0000 C   0  0  0  0  0  0  0  0  0  0  0  0
   -4.3085  -26.4663    0.0000 O   0  0  0  0  0  0  0  0  0  0  0  0
   -5.0289  -25.2291    0.0000 O   0  0  0  0  0  0  0  0  0  0  0  0
   -5.7488  -25.6404    0.0000 C   0  0  0  0  0  0  0  0  0  0  0  0
   -6.4625  -25.2265    0.0000 C   0  0  0  0  0  0  0  0  0  0  0  0
   -5.7503  -26.4608    0.0000 C   0  0  0  0  0  0  0  0  0  0  0  0
   -6.4585  -26.0597    0.0000 C   0  0  0  0  0  0  0  0  0  0  0  0
   -1.4511  -25.6457    0.0000 N   0  0  0  0  0  0  0  0  0  0  0  0
   -3.5952  -25.2308    0.0000 N   0  0  0  0  0  0  0  0  0  0  0  0
   -0.0226  -26.4758    0.0000 N   0  0  0  0  0  0  0  0  0  0  0  0
 17 18  2  0
 18 19  1  0
 19 20  2  0
 20 21  1  0
 21 22  2  0
 22 17  1  0
  4 23  1  0
 23 24  2  0
 24 25  1  0
 25 26  2  0
 26 27  1  0
 27 28  2  0
 28 23  1  0
 29 26  1  0
 30 31  1  0
 30 32  2  0
 31 33  1  6
 33 34  1  0
 33 35  1  0
 33 36  1  0
 29 37  1  0
 37 38  2  0
 39 40  1  6
 39 41  1  0
 40 42  1  0
 42 43  1  0
  2  1  2  0
 41 44  2  0
  3  2  2  0
 41 45  1  0
 45  2  1  0
  2 46  1  0
  4  5  1  0
 46 47  1  0
  5 10  2  0
 47 48  1  0
  9  6  2  0
 28 49  1  0
  6  7  1  0
 49 50  2  0
  7  8  2  0
 50 51  1  0
 51 48  1  0
  8  5  1  0
  9 10  1  0
 52 53  2  0
 10 11  1  0
 52 54  1  0
 11 12  2  0
 54 55  1  0
 12 13  1  0
 55 56  1  0
 13 14  2  0
 55 57  1  0
 14  9  1  0
 55 58  1  0
 13 15  1  0
 15 16  1  0
  7 17  1  0
 31 60  1  0
 60 52  1  0
 29 59  1  6
 59 30  1  0
 37 61  1  0
 61 39  1  0
M  END
> <chembl_id>
CHEMBL1813571

> <chembl_pref_name>
None

$$$$
CHEMBL4562789
     RDKit          2D

 19 21  0  0  0  0  0  0  0  0999 V2000
   30.7012   -4.4885    0.0000 S   0  0  0  0  0  0  0  0  0  0  0  0
   31.2001   -3.8411    0.0000 C   0  0  0  0  0  0  0  0  0  0  0  0
   30.7358   -3.1654    0.0000 N   0  0  0  0  0  0  0  0  0  0  0  0
   29.9308   -4.2159    0.0000 C   0  0  0  0  0  0  0  0  0  0  0  0
   29.9540   -3.4013    0.0000 C   0  0  0  0  0  0  0  0  0  0  0  0
   29.2612   -2.9757    0.0000 C   0  0  0  0  0  0  0  0  0  0  0  0
   28.5448   -3.3636    0.0000 C   0  0  0  0  0  0  0  0  0  0  0  0
   28.5254   -4.1814    0.0000 N   0  0  0  0  0  0  0  0  0  0  0  0
   29.2189   -4.6034    0.0000 C   0  0  0  0  0  0  0  0  0  0  0  0
   32.0138   -3.8647    0.0000 C   0  0  0  0  0  0  0  0  0  0  0  0
   32.4023   -4.5849    0.0000 C   0  0  0  0  0  0  0  0  0  0  0  0
   33.2184   -4.6075    0.0000 C   0  0  0  0  0  0  0  0  0  0  0  0
   33.6470   -3.9107    0.0000 C   0  0  0  0  0  0  0  0  0  0  0  0
   33.2535   -3.1896    0.0000 C   0  0  0  0  0  0  0  0  0  0  0  0
   32.4386   -3.1706    0.0000 C   0  0  0  0  0  0  0  0  0  0  0  0
   32.0475   -2.4531    0.0000 O   0  0  0  0  0  0  0  0  0  0  0  0
   32.4733   -1.7556    0.0000 C   0  0  0  0  0  0  0  0  0  0  0  0
   27.8477   -2.9371    0.0000 N   0  0  0  0  0  0  0  0  0  0  0  0
   27.8686   -2.1202    0.0000 C   0  0  0  0  0  0  0  0  0  0  0  0
  4  1  1  0
  1  2  1  0
  2  3  2  0
  3  5  1  0
  4  5  2  0
  5  6  1  0
  6  7  2  0
  7  8  1  0
  8  9  2  0
  9  4  1  0
 10 11  2  0
 11 12  1  0
 12 13  2  0
 13 14  1  0
 14 15  2  0
 15 10  1  0
  2 10  1  0
 15 16  1  0
 16 17  1  0
  7 18  1  0
 18 19  1  0
M  END
> <chembl_id>
CHEMBL4562789

> <chembl_pref_name>
None

$$$$
CHEMBL485998
     RDKit          2D

 34 38  0  0  0  0  0  0  0  0999 V2000
   -6.2617   -5.5107    0.0000 C   0  0  0  0  0  0  0  0  0  0  0  0
   -6.2617   -6.3352    0.0000 C   0  0  0  0  0  0  0  0  0  0  0  0
   -5.5459   -6.7454    0.0000 C   0  0  0  0  0  0  0  0  0  0  0  0
   -5.5459   -5.0962    0.0000 C   0  0  0  0  0  0  0  0  0  0  0  0
   -4.8342   -5.5107    0.0000 C   0  0  0  0  0  0  0  0  0  0  0  0
   -4.8326   -6.3352    0.0000 C   0  0  0  0  0  0  0  0  0  0  0  0
   -4.1223   -6.7469    0.0000 C   0  0  0  0  0  0  0  0  0  0  0  0
   -3.4108   -6.3367    0.0000 C   0  0  0  0  0  0  0  0  0  0  0  0
   -4.1255   -5.0977    0.0000 C   0  0  0  0  0  0  0  0  0  0  0  0
   -3.4088   -5.5149    0.0000 C   0  0  0  0  0  0  0  0  0  0  0  0
   -3.4010   -3.8633    0.0000 C   0  0  0  0  0  0  0  0  0  0  0  0
   -4.1242   -4.2710    0.0000 C   0  0  0  0  0  0  0  0  0  0  0  0
   -2.6885   -4.2804    0.0000 C   0  0  0  0  0  0  0  0  0  0  0  0
   -2.6956   -5.1069    0.0000 C   0  0  0  0  0  0  0  0  0  0  0  0
   -1.9885   -5.5279    0.0000 C   0  0  0  0  0  0  0  0  0  0  0  0
   -1.2675   -5.1252    0.0000 C   0  0  0  0  0  0  0  0  0  0  0  0
   -1.9701   -3.8708    0.0000 C   0  0  0  0  0  0  0  0  0  0  0  0
   -1.2525   -4.2983    0.0000 C   0  0  0  0  0  0  0  0  0  0  0  0
   -0.5301   -3.8952    0.0000 C   0  0  0  0  0  0  0  0  0  0  0  0
   -0.5157   -3.0621    0.0000 C   0  0  0  0  0  0  0  0  0  0  0  0
   -1.2291   -2.6347    0.0000 C   0  0  0  0  0  0  0  0  0  0  0  0
   -1.9611   -3.0403    0.0000 C   0  0  0  0  0  0  0  0  0  0  0  0
   -6.9798   -6.7491    0.0000 O   0  0  0  0  0  0  0  0  0  0  0  0
   -1.8177   -2.0474    0.0000 C   0  0  0  0  0  0  0  0  0  0  0  0
   -0.6485   -2.0474    0.0000 C   0  0  0  0  0  0  0  0  0  0  0  0
   -0.5449   -4.7093    0.0000 C   0  0  0  0  0  0  0  0  0  0  0  0
   -2.6930   -3.4556    0.0000 C   0  0  0  0  0  0  0  0  0  0  0  0
   -2.7036   -5.9314    0.0000 C   0  0  0  0  0  0  0  0  0  0  0  0
   -5.5536   -7.5700    0.0000 C   0  0  0  0  0  0  0  0  0  0  0  0
   -4.8390   -7.1576    0.0000 C   0  0  0  0  0  0  0  0  0  0  0  0
   -4.1287   -5.9208    0.0000 C   0  0  0  0  0  0  0  0  0  0  0  0
   -4.8342   -4.6860    0.0000 H   0  0  0  0  0  0  0  0  0  0  0  0
   -3.4088   -4.6902    0.0000 H   0  0  0  0  0  0  0  0  0  0  0  0
   -1.9701   -4.6954    0.0000 H   0  0  0  0  0  0  0  0  0  0  0  0
  1  2  1  0
  1  4  1  0
  2  3  1  0
  3  6  1  0
  5  4  1  0
  5  6  1  0
  5  9  1  0
  6  7  1  0
  7  8  1  0
  8 10  1  0
  9 10  1  0
  9 12  1  0
 10 14  1  0
 13 11  1  0
 11 12  1  0
 13 14  1  0
 13 17  1  0
 14 15  1  0
 15 16  1  0
 16 18  1  0
 17 18  1  0
 17 22  1  0
 18 19  1  0
 19 20  1  0
 20 21  1  0
 21 22  1  0
  2 23  2  0
 21 24  1  0
 21 25  1  0
 18 26  1  1
 13 27  1  6
 14 28  1  1
  3 29  1  1
  6 30  1  1
  9 31  1  1
  5 32  1  6
 10 33  1  6
 17 34  1  1
M  END
> <chembl_id>
CHEMBL485998

> <chembl_pref_name>
FRIEDELINE

$$$$
CHEMBL1371074
     RDKit          2D

 28 31  0  0  0  0  0  0  0  0999 V2000
   -0.7134   -1.5654    0.0000 O   0  0  0  0  0  0  0  0  0  0  0  0
   -3.5713   -3.2154    0.0000 O   0  0  0  0  0  0  0  0  0  0  0  0
   -2.1423   -3.2154    0.0000 O   0  0  0  0  0  0  0  0  0  0  0  0
   -1.4279   -0.3279    0.0000 N   0  0  0  0  0  0  0  0  0  0  0  0
   -0.7134    0.9096    0.0000 N   0  0  0  0  0  0  0  0  0  0  0  0
   -0.7134   -0.7404    0.0000 C   0  0  0  0  0  0  0  0  0  0  0  0
    0.0011   -0.3279    0.0000 C   0  0  0  0  0  0  0  0  0  0  0  0
   -1.4279    0.4971    0.0000 C   0  0  0  0  0  0  0  0  0  0  0  0
    0.0011    0.4971    0.0000 C   0  0  0  0  0  0  0  0  0  0  0  0
   -2.1423   -0.7404    0.0000 C   0  0  0  0  0  0  0  0  0  0  0  0
   -2.1423   -1.5654    0.0000 C   0  0  0  0  0  0  0  0  0  0  0  0
    0.7155   -0.7404    0.0000 C   0  0  0  0  0  0  0  0  0  0  0  0
   -2.1423    0.9096    0.0000 C   0  0  0  0  0  0  0  0  0  0  0  0
    0.7155    0.9096    0.0000 C   0  0  0  0  0  0  0  0  0  0  0  0
   -2.8568   -0.3279    0.0000 C   0  0  0  0  0  0  0  0  0  0  0  0
   -2.8568   -1.9779    0.0000 C   0  0  0  0  0  0  0  0  0  0  0  0
    1.4300   -0.3279    0.0000 C   0  0  0  0  0  0  0  0  0  0  0  0
    1.4300    0.4971    0.0000 C   0  0  0  0  0  0  0  0  0  0  0  0
   -3.5713   -0.7404    0.0000 C   0  0  0  0  0  0  0  0  0  0  0  0
   -3.5713   -1.5654    0.0000 C   0  0  0  0  0  0  0  0  0  0  0  0
   -2.8568    0.4971    0.0000 C   0  0  0  0  0  0  0  0  0  0  0  0
   -2.8568   -2.8029    0.0000 C   0  0  0  0  0  0  0  0  0  0  0  0
   -3.5713    0.9096    0.0000 C   0  0  0  0  0  0  0  0  0  0  0  0
   -4.2858    0.4971    0.0000 C   0  0  0  0  0  0  0  0  0  0  0  0
   -3.5713    1.7346    0.0000 C   0  0  0  0  0  0  0  0  0  0  0  0
   -5.0002    0.9096    0.0000 C   0  0  0  0  0  0  0  0  0  0  0  0
   -4.2858    2.1471    0.0000 C   0  0  0  0  0  0  0  0  0  0  0  0
   -5.0002    1.7346    0.0000 C   0  0  0  0  0  0  0  0  0  0  0  0
  1  6  2  0
  2 22  2  0
  3 22  1  0
  4  6  1  0
  4  8  1  0
  4 10  1  0
  5  8  2  0
  5  9  1  0
  6  7  1  0
  7  9  1  0
  7 12  2  0
  8 13  1  0
  9 14  2  0
 10 11  2  0
 10 15  1  0
 11 16  1  0
 12 17  1  0
 13 21  2  0
 14 18  1  0
 15 19  2  0
 16 20  2  0
 16 22  1  0
 17 18  2  0
 19 20  1  0
 21 23  1  0
 23 24  2  0
 23 25  1  0
 24 26  1  0
 25 27  2  0
 26 28  2  0
 27 28  1  0
M  END
> <chembl_id>
CHEMBL1371074

> <chembl_pref_name>
None

$$$$
CHEMBL2059295
     RDKit          2D

 32 35  0  0  0  0  0  0  0  0999 V2000
    1.5675  -11.0745    0.0000 C   0  0  0  0  0  0  0  0  0  0  0  0
    0.1396  -11.0660    0.0000 C   0  0  0  0  0  0  0  0  0  0  0  0
    0.8556  -10.6541    0.0000 C   0  0  0  0  0  0  0  0  0  0  0  0
    2.2835  -10.6647    0.0000 C   0  0  0  0  0  0  0  0  0  0  0  0
    0.1332  -11.8941    0.0000 C   0  0  0  0  0  0  0  0  0  0  0  0
    1.5675  -11.8941    0.0000 C   0  0  0  0  0  0  0  0  0  0  0  0
   -0.5723  -12.3060    0.0000 O   0  0  0  0  0  0  0  0  0  0  0  0
    2.9954  -11.0808    0.0000 C   0  0  0  0  0  0  0  0  0  0  0  0
    2.2772  -12.3144    0.0000 O   0  0  0  0  0  0  0  0  0  0  0  0
    0.8493  -12.3060    0.0000 C   0  0  0  0  0  0  0  0  0  0  0  0
   -1.2882  -11.8939    0.0000 C   0  0  0  0  0  0  0  0  0  0  0  0
   -0.5723  -10.6478    0.0000 C   0  0  0  0  0  0  0  0  0  0  0  0
    2.9954  -11.9047    0.0000 C   0  0  0  0  0  0  0  0  0  0  0  0
   -1.2884  -11.0660    0.0000 C   0  0  0  0  0  0  0  0  0  0  0  0
    2.2835   -9.8262    0.0000 O   0  0  0  0  0  0  0  0  0  0  0  0
    0.8556   -9.8262    0.0000 O   0  0  0  0  0  0  0  0  0  0  0  0
   -2.0002  -10.6541    0.0000 O   0  0  0  0  0  0  0  0  0  0  0  0
   -1.6496  -12.6400    0.0000 C   0  0  0  0  0  0  0  0  0  0  0  0
   -2.1151  -11.9146    0.0000 C   0  0  0  0  0  0  0  0  0  0  0  0
    3.7052  -12.3208    0.0000 C   0  0  0  0  0  0  0  0  0  0  0  0
   -1.9994   -9.8302    0.0000 C   0  0  0  0  0  0  0  0  0  0  0  0
   -1.2871   -9.4193    0.0000 C   0  0  0  0  0  0  0  0  0  0  0  0
   -1.2844   -8.5992    0.0000 C   0  0  0  0  0  0  0  0  0  0  0  0
   -1.9956   -8.1826    0.0000 C   0  0  0  0  0  0  0  0  0  0  0  0
   -2.7113   -8.5927    0.0000 C   0  0  0  0  0  0  0  0  0  0  0  0
   -2.7157   -9.4191    0.0000 O   0  0  0  0  0  0  0  0  0  0  0  0
   -2.8003  -10.0403    0.0000 H   0  0  0  0  0  0  0  0  0  0  0  0
   -3.4229   -8.1775    0.0000 C   0  0  0  0  0  0  0  0  0  0  0  0
   -3.4194   -7.3538    0.0000 O   0  0  0  0  0  0  0  0  0  0  0  0
   -0.5689   -8.1905    0.0000 O   0  0  0  0  0  0  0  0  0  0  0  0
   -0.5744   -9.8326    0.0000 O   0  0  0  0  0  0  0  0  0  0  0  0
   -1.9917   -7.3588    0.0000 O   0  0  0  0  0  0  0  0  0  0  0  0
 13  9  1  0
 14 12  1  0
 15  4  2  0
 16  3  1  0
 14 17  1  1
 18 11  1  0
 19 11  1  0
 20 13  1  0
  2  5  1  0
 13  8  2  0
 14 11  1  0
 17 21  1  0
 21 22  1  0
  2  3  2  0
  3  1  1  0
  4  1  1  0
  5 10  2  0
  6  1  2  0
 21 26  1  0
 22 23  1  0
 23 24  1  0
 24 25  1  0
 25 26  1  0
  7  5  1  0
 21 27  1  6
  8  4  1  0
 25 28  1  1
  9  6  1  0
 28 29  1  0
 10  6  1  0
 23 30  1  1
 11  7  1  0
 22 31  1  6
 12  2  1  0
 24 32  1  6
M  END
> <chembl_id>
CHEMBL2059295

> <chembl_pref_name>
None

$$$$
CHEMBL210593
     RDKit          2D

 20 21  0  0  0  0  0  0  0  0999 V2000
   -1.5921    1.7935    0.0000 C   0  0  0  0  0  0  0  0  0  0  0  0
   -1.4206    0.9865    0.0000 C   0  0  0  0  0  0  0  0  0  0  0  0
   -0.6359    0.7316    0.0000 C   0  0  0  0  0  0  0  0  0  0  0  0
   -0.4644   -0.0754    0.0000 C   0  0  0  0  0  0  0  0  0  0  0  0
   -1.0775   -0.6274    0.0000 C   0  0  0  0  0  0  0  0  0  0  0  0
   -1.8621   -0.3725    0.0000 C   0  0  0  0  0  0  0  0  0  0  0  0
   -2.0337    0.4345    0.0000 C   0  0  0  0  0  0  0  0  0  0  0  0
   -2.8183    0.6894    0.0000 Cl  0  0  0  0  0  0  0  0  0  0  0  0
   -0.9060   -1.4344    0.0000 N   0  0  0  0  0  0  0  0  0  0  0  0
    0.3202   -0.3304    0.0000 S   0  0  0  0  0  0  0  0  0  0  0  0
    0.0653   -1.1150    0.0000 O   0  0  0  0  0  0  0  0  0  0  0  0
    0.5751    0.4543    0.0000 O   0  0  0  0  0  0  0  0  0  0  0  0
    1.1048   -0.5853    0.0000 N   0  0  0  0  0  0  0  0  0  0  0  0
    1.3598   -1.3699    0.0000 C   0  0  0  0  0  0  0  0  0  0  0  0
    2.1848   -1.3699    0.0000 C   0  0  0  0  0  0  0  0  0  0  0  0
    2.4397   -0.5853    0.0000 C   0  0  0  0  0  0  0  0  0  0  0  0
    1.7723   -0.1004    0.0000 C   0  0  0  0  0  0  0  0  0  0  0  0
    1.7723    0.7246    0.0000 C   0  0  0  0  0  0  0  0  0  0  0  0
    1.0578    1.1371    0.0000 O   0  0  0  0  0  0  0  0  0  0  0  0
    2.4867    1.1371    0.0000 O   0  0  0  0  0  0  0  0  0  0  0  0
  1  2  1  0
  2  3  2  0
  2  7  1  0
  3  4  1  0
  4  5  2  0
  4 10  1  0
  5  6  1  0
  5  9  1  0
  6  7  2  0
  7  8  1  0
 11 10  2  0
 12 10  2  0
 13 10  1  0
 14 13  1  0
 17 13  1  0
 14 15  1  0
 16 15  1  0
 16 17  1  0
 17 18  1  6
 18 19  1  0
 18 20  2  0
M  END
> <chembl_id>
CHEMBL210593

> <chembl_pref_name>
None

$$$$
CHEMBL1771799
     RDKit          2D

 21 23  0  0  0  0  0  0  0  0999 V2000
    9.4207  -19.0566    0.0000 C   0  0  0  0  0  0  0  0  0  0  0  0
    9.4195  -19.8837    0.0000 C   0  0  0  0  0  0  0  0  0  0  0  0
   10.1341  -20.2964    0.0000 C   0  0  0  0  0  0  0  0  0  0  0  0
   10.1323  -18.6439    0.0000 C   0  0  0  0  0  0  0  0  0  0  0  0
   10.8474  -19.0529    0.0000 C   0  0  0  0  0  0  0  0  0  0  0  0
   10.8462  -19.8858    0.0000 C   0  0  0  0  0  0  0  0  0  0  0  0
   11.5629  -20.3009    0.0000 N   0  0  0  0  0  0  0  0  0  0  0  0
   12.2854  -19.8879    0.0000 C   0  0  0  0  0  0  0  0  0  0  0  0
   12.2866  -19.0550    0.0000 C   0  0  0  0  0  0  0  0  0  0  0  0
   11.5653  -18.6352    0.0000 C   0  0  0  0  0  0  0  0  0  0  0  0
   12.9985  -20.3022    0.0000 C   0  0  0  0  0  0  0  0  0  0  0  0
   11.5653  -17.8105    0.0000 N   0  0  0  0  0  0  0  0  0  0  0  0
   12.2796  -17.3982    0.0000 N   0  0  0  0  0  0  0  0  0  0  0  0
   12.9939  -17.8106    0.0000 C   0  0  0  0  0  0  0  0  0  0  0  0
   13.7082  -17.3982    0.0000 C   0  0  0  0  0  0  0  0  0  0  0  0
   14.4188  -17.8117    0.0000 N   0  0  0  0  0  0  0  0  0  0  0  0
   15.1326  -17.4000    0.0000 C   0  0  0  0  0  0  0  0  0  0  0  0
   15.1331  -16.5744    0.0000 C   0  0  0  0  0  0  0  0  0  0  0  0
   14.4138  -16.1621    0.0000 N   0  0  0  0  0  0  0  0  0  0  0  0
   13.7030  -16.5762    0.0000 C   0  0  0  0  0  0  0  0  0  0  0  0
   12.9938  -18.6353    0.0000 O   0  0  0  0  0  0  0  0  0  0  0  0
  9 10  2  0
  5  6  1  0
  8 11  1  0
 10 12  1  0
  2  3  1  0
 12 13  1  0
  3  6  2  0
 13 14  1  0
  1  2  2  0
 14 15  1  0
  5  4  2  0
 15 16  2  0
  4  1  1  0
 16 17  1  0
  5 10  1  0
 17 18  2  0
  6  7  1  0
 18 19  1  0
  7  8  2  0
 19 20  2  0
 20 15  1  0
  8  9  1  0
 14 21  2  0
M  END
> <chembl_id>
CHEMBL1771799

> <chembl_pref_name>
None

$$$$
CHEMBL3114563
     RDKit          2D

 34 36  0  0  0  0  0  0  0  0999 V2000
    3.0742   -9.8135    0.0000 N   0  0  0  0  0  0  0  0  0  0  0  0
    3.0317   -8.4906    0.0000 N   0  0  0  0  0  0  0  0  0  0  0  0
    2.5755   -9.1676    0.0000 C   0  0  0  0  0  0  0  0  0  0  0  0
    5.2511   -8.3489    0.0000 N   0  0  0  0  0  0  0  0  0  0  0  0
    5.6224   -9.0757    0.0000 C   0  0  0  0  0  0  0  0  0  0  0  0
    5.2896   -9.8211    0.0000 N   0  0  0  0  0  0  0  0  0  0  0  0
    4.5021  -10.0273    0.0000 C   0  0  0  0  0  0  0  0  0  0  0  0
    4.4431   -8.1893    0.0000 C   0  0  0  0  0  0  0  0  0  0  0  0
    3.8431   -9.5359    0.0000 C   0  0  0  0  0  0  0  0  0  0  0  0
    3.8189   -8.7194    0.0000 C   0  0  0  0  0  0  0  0  0  0  0  0
    4.2374   -7.3984    0.0000 O   0  0  0  0  0  0  0  0  0  0  0  0
    6.4393   -9.0543    0.0000 N   0  0  0  0  0  0  0  0  0  0  0  0
    4.3458  -10.8294    0.0000 O   0  0  0  0  0  0  0  0  0  0  0  0
    6.8662   -9.7511    0.0000 C   0  0  0  0  0  0  0  0  0  0  0  0
    7.6831   -9.7298    0.0000 C   0  0  0  0  0  0  0  0  0  0  0  0
    8.1101  -10.4265    0.0000 C   0  0  0  0  0  0  0  0  0  0  0  0
    8.9270  -10.4052    0.0000 C   0  0  0  0  0  0  0  0  0  0  0  0
    9.3540  -11.1019    0.0000 C   0  0  0  0  0  0  0  0  0  0  0  0
   10.1709  -11.0806    0.0000 C   0  0  0  0  0  0  0  0  0  0  0  0
   10.5979  -11.7773    0.0000 C   0  0  0  0  0  0  0  0  0  0  0  0
   11.4148  -11.7560    0.0000 C   0  0  0  0  0  0  0  0  0  0  0  0
    2.7719  -10.5731    0.0000 C   0  0  0  0  0  0  0  0  0  0  0  0
    1.9821  -10.7739    0.0000 O   0  0  0  0  0  0  0  0  0  0  0  0
    1.9296  -11.5894    0.0000 C   0  0  0  0  0  0  0  0  0  0  0  0
    2.6890  -11.8914    0.0000 C   0  0  0  0  0  0  0  0  0  0  0  0
    3.2107  -11.2624    0.0000 C   0  0  0  0  0  0  0  0  0  0  0  0
    1.2389  -12.0262    0.0000 C   0  0  0  0  0  0  0  0  0  0  0  0
    0.5153  -11.6465    0.0000 O   0  0  0  0  0  0  0  0  0  0  0  0
    2.8911  -12.6832    0.0000 O   0  0  0  0  0  0  0  0  0  0  0  0
    4.0263  -11.3137    0.0000 O   0  0  0  0  0  0  0  0  0  0  0  0
   11.8417  -12.4527    0.0000 C   0  0  0  0  0  0  0  0  0  0  0  0
   12.6587  -12.4314    0.0000 C   0  0  0  0  0  0  0  0  0  0  0  0
   13.0856  -13.1281    0.0000 C   0  0  0  0  0  0  0  0  0  0  0  0
   13.9025  -13.1068    0.0000 C   0  0  0  0  0  0  0  0  0  0  0  0
  1  9  1  0
 10  2  1  0
  2  3  2  0
  3  1  1  0
  4  5  2  0
  5  6  1  0
  6  7  1  0
  4  8  1  0
  7  9  1  0
  8 10  1  0
  9 10  2  0
  8 11  2  0
  5 12  1  0
  7 13  2  0
 12 14  1  0
 14 15  1  0
 15 16  1  0
 16 17  1  0
 17 18  1  0
 18 19  1  0
 19 20  1  0
 20 21  1  0
 22  1  1  1
 22 23  1  0
 23 24  1  0
 24 25  1  0
 25 26  1  0
 26 22  1  0
 24 27  1  1
 27 28  1  0
 25 29  1  6
 26 30  1  6
 21 31  1  0
 31 32  1  0
 32 33  1  0
 33 34  1  0
M  END
> <chembl_id>
CHEMBL3114563

> <chembl_pref_name>
None

$$$$
CHEMBL4447800
     RDKit          2D

 49 55  0  0  0  0  0  0  0  0999 V2000
   32.3223  -11.0491    0.0000 N   0  0  0  0  0  0  0  0  0  0  0  0
   30.7758  -12.1637    0.0000 O   0  0  0  0  0  0  0  0  0  0  0  0
   31.5755  -12.3803    0.0000 S   0  0  0  0  0  0  0  0  0  0  0  0
   31.3632  -11.5794    0.0000 O   0  0  0  0  0  0  0  0  0  0  0  0
   30.8701  -13.6216    0.0000 C   0  0  0  0  0  0  0  0  0  0  0  0
   30.8689  -14.4487    0.0000 C   0  0  0  0  0  0  0  0  0  0  0  0
   31.5836  -14.8615    0.0000 C   0  0  0  0  0  0  0  0  0  0  0  0
   31.5818  -13.2089    0.0000 C   0  0  0  0  0  0  0  0  0  0  0  0
   32.2970  -13.6180    0.0000 C   0  0  0  0  0  0  0  0  0  0  0  0
   32.3018  -14.4442    0.0000 C   0  0  0  0  0  0  0  0  0  0  0  0
   33.0891  -14.6950    0.0000 N   0  0  0  0  0  0  0  0  0  0  0  0
   33.5709  -14.0236    0.0000 C   0  0  0  0  0  0  0  0  0  0  0  0
   33.0813  -13.3581    0.0000 S   0  0  0  0  0  0  0  0  0  0  0  0
   34.3937  -14.0183    0.0000 C   0  0  0  0  0  0  0  0  0  0  0  0
   34.8098  -14.7317    0.0000 C   0  0  0  0  0  0  0  0  0  0  0  0
   35.6338  -14.7273    0.0000 C   0  0  0  0  0  0  0  0  0  0  0  0
   34.7991  -13.3039    0.0000 C   0  0  0  0  0  0  0  0  0  0  0  0
   35.6216  -13.2958    0.0000 C   0  0  0  0  0  0  0  0  0  0  0  0
   36.0427  -14.0079    0.0000 C   0  0  0  0  0  0  0  0  0  0  0  0
   36.8501  -13.8276    0.0000 N   0  0  0  0  0  0  0  0  0  0  0  0
   36.9280  -13.0040    0.0000 C   0  0  0  0  0  0  0  0  0  0  0  0
   36.1689  -12.6755    0.0000 S   0  0  0  0  0  0  0  0  0  0  0  0
   37.6331  -12.5847    0.0000 C   0  0  0  0  0  0  0  0  0  0  0  0
   38.3519  -12.9914    0.0000 C   0  0  0  0  0  0  0  0  0  0  0  0
   39.0615  -12.5723    0.0000 C   0  0  0  0  0  0  0  0  0  0  0  0
   39.0533  -11.7467    0.0000 C   0  0  0  0  0  0  0  0  0  0  0  0
   38.3298  -11.3420    0.0000 C   0  0  0  0  0  0  0  0  0  0  0  0
   37.6232  -11.7634    0.0000 C   0  0  0  0  0  0  0  0  0  0  0  0
   39.7627  -11.3259    0.0000 N   0  0  0  0  0  0  0  0  0  0  0  0
   40.4819  -11.7300    0.0000 C   0  0  0  0  0  0  0  0  0  0  0  0
   41.1912  -11.3093    0.0000 C   0  0  0  0  0  0  0  0  0  0  0  0
   40.4915  -12.5548    0.0000 O   0  0  0  0  0  0  0  0  0  0  0  0
   41.9060  -11.7156    0.0000 C   0  0  0  0  0  0  0  0  0  0  0  0
   41.8816  -10.0662    0.0000 C   0  0  0  0  0  0  0  0  0  0  0  0
   41.1757  -10.4885    0.0000 C   0  0  0  0  0  0  0  0  0  0  0  0
   42.6056  -10.4699    0.0000 C   0  0  0  0  0  0  0  0  0  0  0  0
   42.6177  -11.2950    0.0000 C   0  0  0  0  0  0  0  0  0  0  0  0
   43.4060  -11.5387    0.0000 S   0  0  0  0  0  0  0  0  0  0  0  0
   43.8814  -10.8641    0.0000 C   0  0  0  0  0  0  0  0  0  0  0  0
   43.3866  -10.2037    0.0000 N   0  0  0  0  0  0  0  0  0  0  0  0
   44.7041  -10.8526    0.0000 C   0  0  0  0  0  0  0  0  0  0  0  0
   45.1263  -11.5624    0.0000 C   0  0  0  0  0  0  0  0  0  0  0  0
   45.9503  -11.5508    0.0000 C   0  0  0  0  0  0  0  0  0  0  0  0
   46.3530  -10.8300    0.0000 C   0  0  0  0  0  0  0  0  0  0  0  0
   45.9259  -10.1195    0.0000 C   0  0  0  0  0  0  0  0  0  0  0  0
   45.1033  -10.1346    0.0000 C   0  0  0  0  0  0  0  0  0  0  0  0
   47.1777  -10.8169    0.0000 N   0  0  0  0  0  0  0  0  0  0  0  0
   30.1558  -13.2094    0.0000 C   0  0  0  0  0  0  0  0  0  0  0  0
   32.2924  -11.9696    0.0000 O   0  0  0  0  0  0  0  0  0  0  0  0
  3  2  2  0
  4  3  2  0
  5  6  2  0
  6  7  1  0
  7 10  2  0
  9  8  2  0
  8  5  1  0
  9 10  1  0
 10 11  1  0
 11 12  2  0
 12 13  1  0
 13  9  1  0
 14 15  2  0
 15 16  1  0
 16 19  2  0
 18 17  2  0
 17 14  1  0
 12 14  1  0
 18 19  1  0
 19 20  1  0
 20 21  2  0
 21 22  1  0
 22 18  1  0
 23 24  2  0
 24 25  1  0
 25 26  2  0
 26 27  1  0
 27 28  2  0
 28 23  1  0
 21 23  1  0
 26 29  1  0
 29 30  1  0
 30 31  1  0
 30 32  2  0
 31 33  2  0
 33 37  1  0
 36 34  1  0
 34 35  2  0
 35 31  1  0
 36 37  2  0
 37 38  1  0
 38 39  1  0
 39 40  2  0
 40 36  1  0
 41 42  2  0
 42 43  1  0
 43 44  2  0
 44 45  1  0
 45 46  2  0
 46 41  1  0
 39 41  1  0
 44 47  1  0
  5 48  1  0
  8  3  1  0
  3 49  1  0
M  END
> <chembl_id>
CHEMBL4447800

> <chembl_pref_name>
None

$$$$
CHEMBL483414
     RDKit          2D

 24 25  0  0  0  0  0  0  0  0999 V2000
   -5.4598    1.3709    0.0000 C   0  0  0  0  0  0  0  0  0  0  0  0
   -5.4609    0.5435    0.0000 C   0  0  0  0  0  0  0  0  0  0  0  0
   -4.7461    0.1306    0.0000 C   0  0  0  0  0  0  0  0  0  0  0  0
   -4.0297    0.5440    0.0000 C   0  0  0  0  0  0  0  0  0  0  0  0
   -4.0325    1.3745    0.0000 C   0  0  0  0  0  0  0  0  0  0  0  0
   -4.7479    1.7836    0.0000 C   0  0  0  0  0  0  0  0  0  0  0  0
   -3.3196    1.7897    0.0000 C   0  0  0  0  0  0  0  0  0  0  0  0
   -2.6036    1.3799    0.0000 C   0  0  0  0  0  0  0  0  0  0  0  0
   -1.8907    1.7951    0.0000 C   0  0  0  0  0  0  0  0  0  0  0  0
   -1.1747    1.3853    0.0000 N   0  0  0  0  0  0  0  0  0  0  0  0
   -1.8938    2.6201    0.0000 O   0  0  0  0  0  0  0  0  0  0  0  0
   -0.4617    1.8005    0.0000 C   0  0  0  0  0  0  0  0  0  0  0  0
    0.2543    1.3907    0.0000 C   0  0  0  0  0  0  0  0  0  0  0  0
    0.9672    1.8058    0.0000 C   0  0  0  0  0  0  0  0  0  0  0  0
    1.6832    1.3960    0.0000 C   0  0  0  0  0  0  0  0  0  0  0  0
    2.3961    1.8112    0.0000 N   0  0  0  0  0  0  0  0  0  0  0  0
    3.1121    1.4014    0.0000 C   0  0  0  0  0  0  0  0  0  0  0  0
    3.8250    1.8166    0.0000 C   0  0  0  0  0  0  0  0  0  0  0  0
    3.1152    0.5764    0.0000 O   0  0  0  0  0  0  0  0  0  0  0  0
    4.5406    1.4038    0.0000 C   0  0  0  0  0  0  0  0  0  0  0  0
    5.2530    1.8183    0.0000 C   0  0  0  0  0  0  0  0  0  0  0  0
    5.2503    2.6442    0.0000 C   0  0  0  0  0  0  0  0  0  0  0  0
    4.5293    3.0538    0.0000 C   0  0  0  0  0  0  0  0  0  0  0  0
    3.8198    2.6370    0.0000 C   0  0  0  0  0  0  0  0  0  0  0  0
 10 12  1  0
  6  1  1  0
 12 13  1  0
  1  2  2  0
 13 14  1  0
  5  7  1  0
 14 15  1  0
  3  4  2  0
 15 16  1  0
  7  8  2  0
 16 17  1  0
 17 18  1  0
  8  9  1  0
 17 19  2  0
  4  5  1  0
 18 20  2  0
  9 10  1  0
 20 21  1  0
  2  3  1  0
 21 22  2  0
  9 11  2  0
 22 23  1  0
  5  6  2  0
 23 24  2  0
 24 18  1  0
M  END
> <chembl_id>
CHEMBL483414

> <chembl_pref_name>
PYRAMIDATINE

$$$$
CHEMBL1536896
     RDKit          2D

 37 40  0  0  0  0  0  0  0  0999 V2000
    3.4970   -0.0242    0.0000 S   0  0  0  0  0  0  0  0  0  0  0  0
    0.5690   -1.0067    0.0000 S   0  0  0  0  0  0  0  0  0  0  0  0
    1.9979    2.2933    0.0000 O   0  0  0  0  0  0  0  0  0  0  0  0
    5.2194   -0.0712    0.0000 O   0  0  0  0  0  0  0  0  0  0  0  0
    5.2194    1.3577    0.0000 O   0  0  0  0  0  0  0  0  0  0  0  0
   -0.8600    2.2933    0.0000 O   0  0  0  0  0  0  0  0  0  0  0  0
   -0.8600   -0.1817    0.0000 O   0  0  0  0  0  0  0  0  0  0  0  0
   -3.7178    1.4683    0.0000 O   0  0  0  0  0  0  0  0  0  0  0  0
    2.7124   -2.2442    0.0000 O   0  0  0  0  0  0  0  0  0  0  0  0
    1.9979   -3.4817    0.0000 O   0  0  0  0  0  0  0  0  0  0  0  0
    1.2834    1.0558    0.0000 N   0  0  0  0  0  0  0  0  0  0  0  0
    1.9979   -0.1817    0.0000 N   0  0  0  0  0  0  0  0  0  0  0  0
    2.7124    1.0558    0.0000 C   0  0  0  0  0  0  0  0  0  0  0  0
    2.7124    0.2308    0.0000 C   0  0  0  0  0  0  0  0  0  0  0  0
    1.2834    0.2308    0.0000 C   0  0  0  0  0  0  0  0  0  0  0  0
    1.9979    1.4683    0.0000 C   0  0  0  0  0  0  0  0  0  0  0  0
    3.4970    1.3107    0.0000 C   0  0  0  0  0  0  0  0  0  0  0  0
    3.9819    0.6433    0.0000 C   0  0  0  0  0  0  0  0  0  0  0  0
    0.5690   -0.1817    0.0000 C   0  0  0  0  0  0  0  0  0  0  0  0
    0.5690    1.4683    0.0000 C   0  0  0  0  0  0  0  0  0  0  0  0
   -0.1455    1.0558    0.0000 C   0  0  0  0  0  0  0  0  0  0  0  0
   -0.1455    0.2308    0.0000 C   0  0  0  0  0  0  0  0  0  0  0  0
    4.8069    0.6433    0.0000 C   0  0  0  0  0  0  0  0  0  0  0  0
   -0.8600    1.4683    0.0000 C   0  0  0  0  0  0  0  0  0  0  0  0
   -1.5744    1.0558    0.0000 C   0  0  0  0  0  0  0  0  0  0  0  0
    3.7520    2.0953    0.0000 C   0  0  0  0  0  0  0  0  0  0  0  0
   -1.5744    0.2308    0.0000 C   0  0  0  0  0  0  0  0  0  0  0  0
   -2.2889    1.4683    0.0000 C   0  0  0  0  0  0  0  0  0  0  0  0
    1.2834   -1.4192    0.0000 C   0  0  0  0  0  0  0  0  0  0  0  0
   -3.0034    1.0558    0.0000 C   0  0  0  0  0  0  0  0  0  0  0  0
   -2.2889   -0.1817    0.0000 C   0  0  0  0  0  0  0  0  0  0  0  0
   -3.0034    0.2308    0.0000 C   0  0  0  0  0  0  0  0  0  0  0  0
    6.0444   -0.0712    0.0000 C   0  0  0  0  0  0  0  0  0  0  0  0
    1.2834   -2.2442    0.0000 C   0  0  0  0  0  0  0  0  0  0  0  0
    1.9979   -2.6567    0.0000 C   0  0  0  0  0  0  0  0  0  0  0  0
    6.4569   -0.7857    0.0000 C   0  0  0  0  0  0  0  0  0  0  0  0
   -4.4323    1.0558    0.0000 C   0  0  0  0  0  0  0  0  0  0  0  0
  1 14  1  0
  1 18  1  0
  2 19  1  0
  2 29  1  0
  3 16  2  0
  4 23  1  0
  4 33  1  0
  5 23  2  0
  6 24  2  0
  7 27  1  0
  8 30  1  0
  8 37  1  0
  9 35  2  0
 10 35  1  0
 11 15  1  0
 11 16  1  0
 11 20  1  0
 12 14  1  0
 12 15  2  0
 13 14  2  0
 13 16  1  0
 13 17  1  0
 15 19  1  0
 17 18  2  0
 17 26  1  0
 18 23  1  0
 19 22  2  0
 20 21  2  0
 21 22  1  0
 21 24  1  0
 24 25  1  0
 25 27  1  0
 25 28  2  0
 27 31  2  0
 28 30  1  0
 29 34  1  0
 30 32  2  0
 31 32  1  0
 33 36  1  0
 34 35  1  0
M  END
> <chembl_id>
CHEMBL1536896

> <chembl_pref_name>
None

$$$$
CHEMBL560933
     RDKit          2D

 31 35  0  0  0  0  0  0  0  0999 V2000
   10.6602   -6.2244    0.0000 C   0  0  0  0  0  0  0  0  0  0  0  0
    9.9458   -5.8119    0.0000 C   0  0  0  0  0  0  0  0  0  0  0  0
    9.2313   -6.2244    0.0000 C   0  0  0  0  0  0  0  0  0  0  0  0
   10.6602   -7.0494    0.0000 C   0  0  0  0  0  0  0  0  0  0  0  0
    9.9458   -7.4619    0.0000 C   0  0  0  0  0  0  0  0  0  0  0  0
    9.2313   -7.0494    0.0000 C   0  0  0  0  0  0  0  0  0  0  0  0
    8.5168   -7.4619    0.0000 O   0  0  0  0  0  0  0  0  0  0  0  0
    8.5168   -8.2869    0.0000 C   0  0  0  0  0  0  0  0  0  0  0  0
    9.2313   -8.6994    0.0000 C   0  0  0  0  0  0  0  0  0  0  0  0
    9.9458   -8.2869    0.0000 C   0  0  0  0  0  0  0  0  0  0  0  0
    7.8024   -8.6994    0.0000 C   0  0  0  0  0  0  0  0  0  0  0  0
    7.8024   -9.5244    0.0000 C   0  0  0  0  0  0  0  0  0  0  0  0
    7.0879   -9.9369    0.0000 C   0  0  0  0  0  0  0  0  0  0  0  0
    7.0879   -8.2869    0.0000 C   0  0  0  0  0  0  0  0  0  0  0  0
    9.2313   -9.5244    0.0000 O   0  0  0  0  0  0  0  0  0  0  0  0
   10.6602   -8.6994    0.0000 O   0  0  0  0  0  0  0  0  0  0  0  0
   11.3747   -7.4619    0.0000 O   0  0  0  0  0  0  0  0  0  0  0  0
    9.9458   -4.9869    0.0000 O   0  0  0  0  0  0  0  0  0  0  0  0
   10.6602   -4.5744    0.0000 C   0  0  0  0  0  0  0  0  0  0  0  0
   10.6602   -3.7494    0.0000 C   0  0  0  0  0  0  0  0  0  0  0  0
    9.9458   -3.3369    0.0000 C   0  0  0  0  0  0  0  0  0  0  0  0
    9.9458   -2.5119    0.0000 C   0  0  0  0  0  0  0  0  0  0  0  0
   10.6602   -2.0994    0.0000 C   0  0  0  0  0  0  0  0  0  0  0  0
   11.3747   -2.5119    0.0000 C   0  0  0  0  0  0  0  0  0  0  0  0
   11.3747   -3.3369    0.0000 C   0  0  0  0  0  0  0  0  0  0  0  0
   12.0892   -2.0994    0.0000 Cl  0  0  0  0  0  0  0  0  0  0  0  0
    6.3734   -8.6994    0.0000 C   0  0  0  0  0  0  0  0  0  0  0  0
    6.3734   -9.5244    0.0000 C   0  0  0  0  0  0  0  0  0  0  0  0
    5.5888   -9.7794    0.0000 O   0  0  0  0  0  0  0  0  0  0  0  0
    5.1039   -9.1119    0.0000 C   0  0  0  0  0  0  0  0  0  0  0  0
    5.5888   -8.4445    0.0000 O   0  0  0  0  0  0  0  0  0  0  0  0
 14 11  1  0
  1  2  2  0
  9 15  1  0
  5  4  2  0
 10 16  2  0
  4  1  1  0
  4 17  1  0
  5 10  1  0
  2 18  1  0
  6  7  1  0
 18 19  1  0
  7  8  1  0
 19 20  1  0
  8  9  2  0
 20 21  2  0
  9 10  1  0
 21 22  1  0
  5  6  1  0
 22 23  2  0
  8 11  1  0
 23 24  1  0
 24 25  2  0
 25 20  1  0
 11 12  2  0
 24 26  1  0
 27 28  1  0
  2  3  1  0
 12 13  1  0
 13 28  2  0
  3  6  2  0
 27 14  2  0
 28 29  1  0
 29 30  1  0
 30 31  1  0
 31 27  1  0
M  END
> <chembl_id>
CHEMBL560933

> <chembl_pref_name>
None

$$$$
CHEMBL3306225
     RDKit          2D

 25 26  0  0  0  0  0  0  0  0999 V2000
   22.8456  -12.5860    0.0000 N   0  0  0  0  0  0  0  0  0  0  0  0
   22.2004  -13.0874    0.0000 C   0  0  0  0  0  0  0  0  0  0  0  0
   24.0883  -12.1301    0.0000 C   0  0  0  0  0  0  0  0  0  0  0  0
   23.6285  -12.8118    0.0000 N   0  0  0  0  0  0  0  0  0  0  0  0
   23.5752  -11.4834    0.0000 N   0  0  0  0  0  0  0  0  0  0  0  0
   21.9403  -13.8675    0.0000 C   0  0  0  0  0  0  0  0  0  0  0  0
   21.5441  -12.6046    0.0000 O   0  0  0  0  0  0  0  0  0  0  0  0
   22.8135  -11.7724    0.0000 C   0  0  0  0  0  0  0  0  0  0  0  0
   21.1232  -13.8634    0.0000 C   0  0  0  0  0  0  0  0  0  0  0  0
   20.8755  -13.0833    0.0000 C   0  0  0  0  0  0  0  0  0  0  0  0
   24.9030  -12.0963    0.0000 C   0  0  0  0  0  0  0  0  0  0  0  0
   25.2835  -11.3731    0.0000 O   0  0  0  0  0  0  0  0  0  0  0  0
   22.4191  -14.5320    0.0000 O   0  0  0  0  0  0  0  0  0  0  0  0
   25.3411  -12.7884    0.0000 N   0  0  0  0  0  0  0  0  0  0  0  0
   20.6403  -14.5196    0.0000 O   0  0  0  0  0  0  0  0  0  0  0  0
   20.1727  -12.6590    0.0000 C   0  0  0  0  0  0  0  0  0  0  0  0
   20.1964  -11.8386    0.0000 O   0  0  0  0  0  0  0  0  0  0  0  0
   19.5008  -11.4098    0.0000 P   0  0  0  0  0  0  0  0  0  0  0  0
   19.5243  -10.5929    0.0000 O   0  0  0  0  0  0  0  0  0  0  0  0
   18.7046  -11.6181    0.0000 O   0  0  0  0  0  0  0  0  0  0  0  0
   19.4929  -12.2249    0.0000 O   0  0  0  0  0  0  0  0  0  0  0  0
   18.1301  -11.0370    0.0000 P   0  0  0  0  0  0  0  0  0  0  0  0
   17.3396  -11.2439    0.0000 O   0  0  0  0  0  0  0  0  0  0  0  0
   18.7046  -10.4543    0.0000 O   0  0  0  0  0  0  0  0  0  0  0  0
   17.7141  -10.3263    0.0000 O   0  0  0  0  0  0  0  0  0  0  0  0
  2  1  1  1
  3  4  2  0
  4  1  1  0
  5  8  2  0
  6  2  1  0
  7  2  1  0
  8  1  1  0
  9  6  1  0
 10  7  1  0
 11  3  1  0
 12 11  2  0
  6 13  1  6
 14 11  1  0
  9 15  1  6
 10 16  1  1
 17 16  1  0
  3  5  1  0
 10  9  1  0
 17 18  1  0
 18 19  2  0
 18 20  1  0
 18 21  1  0
 20 22  1  0
 22 23  1  0
 22 24  2  0
 22 25  1  0
M  END
> <chembl_id>
CHEMBL3306225

> <chembl_pref_name>
None

$$$$
CHEMBL3969033
     RDKit          2D

 19 21  0  0  0  0  0  0  0  0999 V2000
   12.8529  -18.3307    0.0000 C   0  0  0  0  0  0  0  0  0  0  0  0
   12.1429  -17.9238    0.0000 C   0  0  0  0  0  0  0  0  0  0  0  0
   11.4348  -18.3341    0.0000 N   0  0  0  0  0  0  0  0  0  0  0  0
   10.7288  -17.9272    0.0000 C   0  0  0  0  0  0  0  0  0  0  0  0
   10.7268  -17.1100    0.0000 C   0  0  0  0  0  0  0  0  0  0  0  0
   11.4349  -16.6997    0.0000 N   0  0  0  0  0  0  0  0  0  0  0  0
   12.1409  -17.1066    0.0000 C   0  0  0  0  0  0  0  0  0  0  0  0
   13.5610  -17.9245    0.0000 O   0  0  0  0  0  0  0  0  0  0  0  0
   12.8549  -19.1478    0.0000 N   0  0  0  0  0  0  0  0  0  0  0  0
   12.1468  -19.5582    0.0000 N   0  0  0  0  0  0  0  0  0  0  0  0
   12.8567  -21.5994    0.0000 C   0  0  0  0  0  0  0  0  0  0  0  0
   12.1486  -22.0097    0.0000 N   0  0  0  0  0  0  0  0  0  0  0  0
   11.4427  -21.6028    0.0000 C   0  0  0  0  0  0  0  0  0  0  0  0
   11.4407  -20.7857    0.0000 C   0  0  0  0  0  0  0  0  0  0  0  0
   12.1488  -20.3753    0.0000 C   0  0  0  0  0  0  0  0  0  0  0  0
   12.8547  -20.7822    0.0000 N   0  0  0  0  0  0  0  0  0  0  0  0
   10.6628  -20.5370    0.0000 C   0  0  0  0  0  0  0  0  0  0  0  0
   10.1843  -21.1973    0.0000 C   0  0  0  0  0  0  0  0  0  0  0  0
   10.6660  -21.8553    0.0000 S   0  0  0  0  0  0  0  0  0  0  0  0
  1  2  1  0
  2  3  1  0
  3  4  2  0
  4  5  1  0
  5  6  2  0
  6  7  1  0
  2  7  2  0
  9 10  1  0
  1  8  2  0
  1  9  1  0
 11 12  1  0
 12 13  2  0
 13 14  1  0
 14 15  2  0
 15 16  1  0
 11 16  2  0
 17 18  2  0
 18 19  1  0
 13 19  1  0
 14 17  1  0
 10 15  1  0
M  END
> <chembl_id>
CHEMBL3969033

> <chembl_pref_name>
None

$$$$
CHEMBL46815
     RDKit          2D

 42 47  0  0  0  0  0  0  0  0999 V2000
   11.4917   -9.3125    0.0000 C   0  0  0  0  0  0  0  0  0  0  0  0
   -0.6333   -6.3500    0.0000 C   0  0  0  0  0  0  0  0  0  0  0  0
   -1.3458   -6.7542    0.0000 N   0  0  0  0  0  0  0  0  0  0  0  0
   11.4917  -10.0292    0.0000 N   0  0  0  0  0  0  0  0  0  0  0  0
   12.1167   -8.9542    0.0000 N   0  0  0  0  0  0  0  0  0  0  0  0
   -0.6208   -5.5167    0.0000 N   0  0  0  0  0  0  0  0  0  0  0  0
   -2.0500   -5.5167    0.0000 C   0  0  0  0  0  0  0  0  0  0  0  0
   12.7292  -10.0417    0.0000 C   0  0  0  0  0  0  0  0  0  0  0  0
    7.9292   -8.0542    0.0000 C   0  0  0  0  0  0  0  0  0  0  0  0
    2.9292   -7.6125    0.0000 C   0  0  0  0  0  0  0  0  0  0  0  0
   -1.3375   -5.1125    0.0000 C   0  0  0  0  0  0  0  0  0  0  0  0
   12.7375   -9.3250    0.0000 C   0  0  0  0  0  0  0  0  0  0  0  0
    0.0792   -6.7667    0.0000 C   0  0  0  0  0  0  0  0  0  0  0  0
   10.7792   -8.8917    0.0000 C   0  0  0  0  0  0  0  0  0  0  0  0
    2.2125   -8.0167    0.0000 N   0  0  0  0  0  0  0  0  0  0  0  0
    8.6500   -7.6500    0.0000 N   0  0  0  0  0  0  0  0  0  0  0  0
    7.9292   -8.8792    0.0000 O   0  0  0  0  0  0  0  0  0  0  0  0
    2.9292   -6.7875    0.0000 O   0  0  0  0  0  0  0  0  0  0  0  0
    7.2167   -7.6417    0.0000 N   0  0  0  0  0  0  0  0  0  0  0  0
    3.6417   -8.0292    0.0000 N   0  0  0  0  0  0  0  0  0  0  0  0
   10.0667   -9.3042    0.0000 C   0  0  0  0  0  0  0  0  0  0  0  0
   10.7792   -8.0667    0.0000 C   0  0  0  0  0  0  0  0  0  0  0  0
    0.0667   -7.5917    0.0000 C   0  0  0  0  0  0  0  0  0  0  0  0
    0.7917   -6.3542    0.0000 C   0  0  0  0  0  0  0  0  0  0  0  0
    1.5000   -7.6000    0.0000 C   0  0  0  0  0  0  0  0  0  0  0  0
    9.3625   -8.0667    0.0000 C   0  0  0  0  0  0  0  0  0  0  0  0
    0.7792   -8.0042    0.0000 C   0  0  0  0  0  0  0  0  0  0  0  0
   10.0750   -7.6542    0.0000 C   0  0  0  0  0  0  0  0  0  0  0  0
    1.5042   -6.7667    0.0000 C   0  0  0  0  0  0  0  0  0  0  0  0
    9.3542   -8.8917    0.0000 C   0  0  0  0  0  0  0  0  0  0  0  0
   -2.7708   -5.1125    0.0000 C   0  0  0  0  0  0  0  0  0  0  0  0
   13.3542  -10.4000    0.0000 C   0  0  0  0  0  0  0  0  0  0  0  0
   -1.3375   -4.2792    0.0000 C   0  0  0  0  0  0  0  0  0  0  0  0
   13.3542   -8.9667    0.0000 C   0  0  0  0  0  0  0  0  0  0  0  0
    4.3542   -7.6167    0.0000 C   0  0  0  0  0  0  0  0  0  0  0  0
    6.5000   -8.0417    0.0000 C   0  0  0  0  0  0  0  0  0  0  0  0
    5.7875   -7.6292    0.0000 C   0  0  0  0  0  0  0  0  0  0  0  0
    5.0667   -8.0375    0.0000 C   0  0  0  0  0  0  0  0  0  0  0  0
   -2.0583   -3.8667    0.0000 C   0  0  0  0  0  0  0  0  0  0  0  0
   -2.7708   -4.2875    0.0000 C   0  0  0  0  0  0  0  0  0  0  0  0
   13.9750  -10.0417    0.0000 C   0  0  0  0  0  0  0  0  0  0  0  0
   13.9750   -9.3250    0.0000 C   0  0  0  0  0  0  0  0  0  0  0  0
  2 13  1  0
  3  2  2  0
  4  1  2  0
  5  1  1  0
  6  2  1  0
  7  3  1  0
  8  4  1  0
  9 16  1  0
 10 20  1  0
 11  6  1  0
 12  5  1  0
 13 24  1  0
 14  1  1  0
 15 10  1  0
 16 26  1  0
 17  9  2  0
 18 10  2  0
 19  9  1  0
 20 35  1  0
 21 14  2  0
 22 14  1  0
 23 27  1  0
 24 29  2  0
 25 15  1  0
 26 28  1  0
 27 25  2  0
 28 22  2  0
 29 25  1  0
 30 21  1  0
 31  7  1  0
 32  8  1  0
 33 11  1  0
 34 12  1  0
 35 38  1  0
 36 19  1  0
 37 36  1  0
 38 37  1  0
 39 33  2  0
 40 31  2  0
 41 32  2  0
 42 34  2  0
 12  8  2  0
 26 30  2  0
 41 42  1  0
 13 23  2  0
 11  7  2  0
 39 40  1  0
M  END
> <chembl_id>
CHEMBL46815

> <chembl_pref_name>
None

$$$$
CHEMBL4076772
     RDKit          2D

 38 42  0  0  0  0  0  0  0  0999 V2000
   27.6070   -3.2234    0.0000 O   0  0  0  0  0  0  0  0  0  0  0  0
   27.2026   -2.5176    0.0000 S   0  0  0  0  0  0  0  0  0  0  0  0
   26.7936   -3.2208    0.0000 O   0  0  0  0  0  0  0  0  0  0  0  0
   19.7199   -2.6167    0.0000 O   0  0  0  0  0  0  0  0  0  0  0  0
   20.1326   -3.3265    0.0000 S   0  0  0  0  0  0  0  0  0  0  0  0
   20.5410   -2.6142    0.0000 O   0  0  0  0  0  0  0  0  0  0  0  0
   22.9639   -2.5094    0.0000 C   0  0  0  0  0  0  0  0  0  0  0  0
   22.9639   -3.3265    0.0000 N   0  0  0  0  0  0  0  0  0  0  0  0
   23.6692   -3.7310    0.0000 C   0  0  0  0  0  0  0  0  0  0  0  0
   24.3745   -3.3265    0.0000 C   0  0  0  0  0  0  0  0  0  0  0  0
   24.3745   -2.5094    0.0000 N   0  0  0  0  0  0  0  0  0  0  0  0
   23.6692   -2.0966    0.0000 C   0  0  0  0  0  0  0  0  0  0  0  0
   25.0834   -2.1028    0.0000 C   0  0  0  0  0  0  0  0  0  0  0  0
   25.7899   -2.5135    0.0000 C   0  0  0  0  0  0  0  0  0  0  0  0
   26.4988   -2.1070    0.0000 N   0  0  0  0  0  0  0  0  0  0  0  0
   22.2568   -3.7362    0.0000 C   0  0  0  0  0  0  0  0  0  0  0  0
   21.5485   -3.3286    0.0000 C   0  0  0  0  0  0  0  0  0  0  0  0
   20.8414   -3.7382    0.0000 N   0  0  0  0  0  0  0  0  0  0  0  0
   19.4260   -3.7403    0.0000 C   0  0  0  0  0  0  0  0  0  0  0  0
   18.7185   -3.3311    0.0000 C   0  0  0  0  0  0  0  0  0  0  0  0
   18.0119   -3.7400    0.0000 C   0  0  0  0  0  0  0  0  0  0  0  0
   19.4296   -4.5542    0.0000 C   0  0  0  0  0  0  0  0  0  0  0  0
   27.9142   -2.1111    0.0000 C   0  0  0  0  0  0  0  0  0  0  0  0
   28.6175   -2.5252    0.0000 C   0  0  0  0  0  0  0  0  0  0  0  0
   28.6173   -0.8907    0.0000 C   0  0  0  0  0  0  0  0  0  0  0  0
   27.9118   -1.2989    0.0000 C   0  0  0  0  0  0  0  0  0  0  0  0
   18.7259   -4.9655    0.0000 C   0  0  0  0  0  0  0  0  0  0  0  0
   18.0176   -4.5564    0.0000 C   0  0  0  0  0  0  0  0  0  0  0  0
   17.3112   -4.9652    0.0000 C   0  0  0  0  0  0  0  0  0  0  0  0
   17.3120   -5.7829    0.0000 C   0  0  0  0  0  0  0  0  0  0  0  0
   18.0250   -6.1901    0.0000 C   0  0  0  0  0  0  0  0  0  0  0  0
   18.7284   -5.7790    0.0000 C   0  0  0  0  0  0  0  0  0  0  0  0
   29.3288   -1.3012    0.0000 C   0  0  0  0  0  0  0  0  0  0  0  0
   29.3255   -2.1196    0.0000 C   0  0  0  0  0  0  0  0  0  0  0  0
   30.0315   -2.5298    0.0000 C   0  0  0  0  0  0  0  0  0  0  0  0
   30.7411   -2.1228    0.0000 C   0  0  0  0  0  0  0  0  0  0  0  0
   30.7404   -1.3013    0.0000 C   0  0  0  0  0  0  0  0  0  0  0  0
   30.0339   -0.8948    0.0000 C   0  0  0  0  0  0  0  0  0  0  0  0
  2  1  2  0
  3  2  2  0
  5  4  2  0
  6  5  2  0
  7  8  1  0
  7 12  1  0
  8  9  1  0
  9 10  1  0
 10 11  1  0
 11 12  1  0
 11 13  1  0
 13 14  1  0
 14 15  1  0
  8 16  1  0
 16 17  1  0
 17 18  1  0
 18  5  1  0
  5 19  1  0
 19 20  2  0
 20 21  1  0
 21 28  2  0
 27 22  2  0
 22 19  1  0
 15  2  1  0
  2 23  1  0
 23 24  2  0
 24 34  1  0
 33 25  1  0
 25 26  2  0
 26 23  1  0
 27 28  1  0
 28 29  1  0
 29 30  2  0
 30 31  1  0
 31 32  2  0
 32 27  1  0
 33 34  1  0
 34 35  2  0
 35 36  1  0
 36 37  2  0
 37 38  1  0
 38 33  2  0
M  END
> <chembl_id>
CHEMBL4076772

> <chembl_pref_name>
None

$$$$
CHEMBL491772
     RDKit          2D

 22 24  0  0  0  0  0  0  0  0999 V2000
   12.6747   -6.2563    0.0000 C   0  0  0  0  0  0  0  0  0  0  0  0
   12.6736   -7.0838    0.0000 C   0  0  0  0  0  0  0  0  0  0  0  0
   13.3884   -7.4966    0.0000 C   0  0  0  0  0  0  0  0  0  0  0  0
   14.1049   -7.0833    0.0000 C   0  0  0  0  0  0  0  0  0  0  0  0
   14.1021   -6.2526    0.0000 C   0  0  0  0  0  0  0  0  0  0  0  0
   13.3867   -5.8435    0.0000 C   0  0  0  0  0  0  0  0  0  0  0  0
   14.8202   -7.4947    0.0000 C   0  0  0  0  0  0  0  0  0  0  0  0
   14.8214   -8.3198    0.0000 C   0  0  0  0  0  0  0  0  0  0  0  0
   15.5340   -7.0810    0.0000 C   0  0  0  0  0  0  0  0  0  0  0  0
   16.2458   -7.4929    0.0000 C   0  0  0  0  0  0  0  0  0  0  0  0
   16.9592   -7.0799    0.0000 C   0  0  0  0  0  0  0  0  0  0  0  0
   16.9584   -6.2540    0.0000 C   0  0  0  0  0  0  0  0  0  0  0  0
   16.2382   -5.8427    0.0000 C   0  0  0  0  0  0  0  0  0  0  0  0
   15.5277   -6.2580    0.0000 C   0  0  0  0  0  0  0  0  0  0  0  0
   14.1062   -8.7318    0.0000 C   0  0  0  0  0  0  0  0  0  0  0  0
   14.1072   -9.5560    0.0000 C   0  0  0  0  0  0  0  0  0  0  0  0
   14.8229   -9.9683    0.0000 C   0  0  0  0  0  0  0  0  0  0  0  0
   15.5391   -9.5502    0.0000 C   0  0  0  0  0  0  0  0  0  0  0  0
   15.5347   -8.7273    0.0000 C   0  0  0  0  0  0  0  0  0  0  0  0
   17.6717   -5.8393    0.0000 N   0  0  0  0  0  0  0  0  0  0  0  0
   14.8253  -10.7933    0.0000 N   0  0  0  0  0  0  0  0  0  0  0  0
   11.9601   -5.8439    0.0000 N   0  0  0  0  0  0  0  0  0  0  0  0
  1  2  2  0
  2  3  1  0
  3  4  2  0
  4  5  1  0
  5  6  2  0
  6  1  1  0
  4  7  1  0
  7  8  1  0
  7  9  1  0
  9 10  2  0
 10 11  1  0
 11 12  2  0
 12 13  1  0
 13 14  2  0
 14  9  1  0
  8 15  2  0
 15 16  1  0
 16 17  2  0
 17 18  1  0
 18 19  2  0
 19  8  1  0
 12 20  1  0
 17 21  1  0
  1 22  1  0
M  END
> <chembl_id>
CHEMBL491772

> <chembl_pref_name>
None

$$$$
CHEMBL3919718
     RDKit          2D

 24 27  0  0  0  0  0  0  0  0999 V2000
   13.3559  -11.5167    0.0000 C   0  0  0  0  0  0  0  0  0  0  0  0
   13.3422  -12.3337    0.0000 C   0  0  0  0  0  0  0  0  0  0  0  0
   14.0443  -12.7530    0.0000 C   0  0  0  0  0  0  0  0  0  0  0  0
   14.7559  -12.3552    0.0000 C   0  0  0  0  0  0  0  0  0  0  0  0
   14.7737  -11.5382    0.0000 C   0  0  0  0  0  0  0  0  0  0  0  0
   14.0717  -11.1190    0.0000 C   0  0  0  0  0  0  0  0  0  0  0  0
   12.6579  -11.0933    0.0000 O   0  0  0  0  0  0  0  0  0  0  0  0
   15.4580  -12.7786    0.0000 O   0  0  0  0  0  0  0  0  0  0  0  0
   12.6264  -12.7273    0.0000 C   0  0  0  0  0  0  0  0  0  0  0  0
   12.6127  -13.5443    0.0000 N   0  0  0  0  0  0  0  0  0  0  0  0
   11.8970  -13.9421    0.0000 N   0  0  0  0  0  0  0  0  0  0  0  0
   12.5675  -15.9953    0.0000 C   0  0  0  0  0  0  0  0  0  0  0  0
   11.8559  -16.3931    0.0000 N   0  0  0  0  0  0  0  0  0  0  0  0
   11.1538  -15.9697    0.0000 C   0  0  0  0  0  0  0  0  0  0  0  0
   11.1716  -15.1527    0.0000 C   0  0  0  0  0  0  0  0  0  0  0  0
   11.8833  -14.7591    0.0000 C   0  0  0  0  0  0  0  0  0  0  0  0
   12.5854  -15.1783    0.0000 N   0  0  0  0  0  0  0  0  0  0  0  0
   10.3973  -14.8896    0.0000 C   0  0  0  0  0  0  0  0  0  0  0  0
    9.9036  -15.5398    0.0000 C   0  0  0  0  0  0  0  0  0  0  0  0
   10.3741  -16.2117    0.0000 S   0  0  0  0  0  0  0  0  0  0  0  0
    9.0957  -15.4422    0.0000 C   0  0  0  0  0  0  0  0  0  0  0  0
    8.7732  -14.6862    0.0000 C   0  0  0  0  0  0  0  0  0  0  0  0
    9.2668  -14.0360    0.0000 C   0  0  0  0  0  0  0  0  0  0  0  0
   10.0789  -14.1336    0.0000 C   0  0  0  0  0  0  0  0  0  0  0  0
  1  2  1  0
  2  3  2  0
  3  4  1  0
  4  5  2  0
  5  6  1  0
  1  6  2  0
  1  7  1  0
  4  8  1  0
 10 11  1  0
 12 13  1  0
 13 14  2  0
 14 15  1  0
 15 16  2  0
 16 17  1  0
 12 17  2  0
 18 19  2  0
 19 20  1  0
 21 22  1  0
 22 23  1  0
 23 24  1  0
 18 24  1  0
 19 21  1  0
 14 20  1  0
 15 18  1  0
 11 16  1  0
  9 10  2  0
  2  9  1  0
M  END
> <chembl_id>
CHEMBL3919718

> <chembl_pref_name>
None

$$$$
CHEMBL4542310
     RDKit          2D

 19 21  0  0  0  0  0  0  0  0999 V2000
   26.1816   -2.4384    0.0000 N   0  0  0  0  0  0  0  0  0  0  0  0
   25.5186   -1.9563    0.0000 N   0  0  0  0  0  0  0  0  0  0  0  0
   24.8599   -2.4384    0.0000 C   0  0  0  0  0  0  0  0  0  0  0  0
   25.9272   -3.2151    0.0000 C   0  0  0  0  0  0  0  0  0  0  0  0
   25.1100   -3.2151    0.0000 N   0  0  0  0  0  0  0  0  0  0  0  0
   24.8575   -3.9923    0.0000 N   0  0  0  0  0  0  0  0  0  0  0  0
   25.5186   -4.4727    0.0000 C   0  0  0  0  0  0  0  0  0  0  0  0
   26.1797   -3.9923    0.0000 S   0  0  0  0  0  0  0  0  0  0  0  0
   25.5187   -5.2899    0.0000 C   0  0  0  0  0  0  0  0  0  0  0  0
   24.8112   -5.6952    0.0000 C   0  0  0  0  0  0  0  0  0  0  0  0
   24.8109   -6.5117    0.0000 C   0  0  0  0  0  0  0  0  0  0  0  0
   25.5192   -6.9211    0.0000 C   0  0  0  0  0  0  0  0  0  0  0  0
   26.2292   -6.5080    0.0000 C   0  0  0  0  0  0  0  0  0  0  0  0
   26.2260   -5.6930    0.0000 C   0  0  0  0  0  0  0  0  0  0  0  0
   26.9318   -5.2810    0.0000 O   0  0  0  0  0  0  0  0  0  0  0  0
   27.6414   -5.6861    0.0000 C   0  0  0  0  0  0  0  0  0  0  0  0
   28.3472   -5.2742    0.0000 C   0  0  0  0  0  0  0  0  0  0  0  0
   29.0568   -5.6793    0.0000 O   0  0  0  0  0  0  0  0  0  0  0  0
   29.7626   -5.2673    0.0000 C   0  0  0  0  0  0  0  0  0  0  0  0
  4  1  2  0
  1  2  1  0
  2  3  2  0
  3  5  1  0
  4  5  1  0
  5  6  1  0
  6  7  2  0
  7  8  1  0
  8  4  1  0
  7  9  1  0
  9 10  2  0
 10 11  1  0
 11 12  2  0
 12 13  1  0
 13 14  2  0
 14  9  1  0
 14 15  1  0
 15 16  1  0
 16 17  1  0
 17 18  1  0
 18 19  1  0
M  END
> <chembl_id>
CHEMBL4542310

> <chembl_pref_name>
None

$$$$
CHEMBL3983922
     RDKit          2D

 24 27  0  0  0  0  0  0  0  0999 V2000
   10.6368  -18.0746    0.0000 N   0  0  0  0  0  0  0  0  0  0  0  0
   10.6351  -18.8918    0.0000 C   0  0  0  0  0  0  0  0  0  0  0  0
   11.3372  -19.3012    0.0000 C   0  0  0  0  0  0  0  0  0  0  0  0
   12.0491  -18.8977    0.0000 N   0  0  0  0  0  0  0  0  0  0  0  0
   12.0508  -18.0805    0.0000 C   0  0  0  0  0  0  0  0  0  0  0  0
   11.3446  -17.6669    0.0000 C   0  0  0  0  0  0  0  0  0  0  0  0
    9.9232  -19.2954    0.0000 C   0  0  0  0  0  0  0  0  0  0  0  0
    9.2170  -18.8859    0.0000 C   0  0  0  0  0  0  0  0  0  0  0  0
    9.9215  -20.1126    0.0000 N   0  0  0  0  0  0  0  0  0  0  0  0
    9.2095  -20.5203    0.0000 N   0  0  0  0  0  0  0  0  0  0  0  0
    9.9083  -22.5641    0.0000 C   0  0  0  0  0  0  0  0  0  0  0  0
    9.1964  -22.9718    0.0000 N   0  0  0  0  0  0  0  0  0  0  0  0
    8.4902  -22.5582    0.0000 C   0  0  0  0  0  0  0  0  0  0  0  0
    8.4959  -21.7410    0.0000 C   0  0  0  0  0  0  0  0  0  0  0  0
    9.2038  -21.3375    0.0000 C   0  0  0  0  0  0  0  0  0  0  0  0
    9.9100  -21.7469    0.0000 N   0  0  0  0  0  0  0  0  0  0  0  0
    7.7205  -21.4850    0.0000 C   0  0  0  0  0  0  0  0  0  0  0  0
    7.2357  -22.1449    0.0000 C   0  0  0  0  0  0  0  0  0  0  0  0
    7.7153  -22.8074    0.0000 S   0  0  0  0  0  0  0  0  0  0  0  0
    6.4259  -22.0551    0.0000 C   0  0  0  0  0  0  0  0  0  0  0  0
    6.0968  -21.3055    0.0000 C   0  0  0  0  0  0  0  0  0  0  0  0
    6.5775  -20.6456    0.0000 C   0  0  0  0  0  0  0  0  0  0  0  0
    7.3914  -20.7354    0.0000 C   0  0  0  0  0  0  0  0  0  0  0  0
   10.6145  -22.9777    0.0000 C   0  0  0  0  0  0  0  0  0  0  0  0
  1  2  1  0
  2  3  2  0
  3  4  1  0
  4  5  2  0
  5  6  1  0
  1  6  2  0
  7  8  1  0
  9 10  1  0
 11 12  1  0
 12 13  2  0
 13 14  1  0
 14 15  2  0
 15 16  1  0
 11 16  2  0
 17 18  2  0
 18 19  1  0
 20 21  1  0
 21 22  1  0
 22 23  1  0
 17 23  1  0
 18 20  1  0
 13 19  1  0
 14 17  1  0
 11 24  1  0
 10 15  1  0
  7  9  2  0
  2  7  1  0
M  END
> <chembl_id>
CHEMBL3983922

> <chembl_pref_name>
None

$$$$
CHEMBL1254678
     RDKit          2D

 33 36  0  0  0  0  0  0  0  0999 V2000
    6.2335  -14.2497    0.0000 C   0  0  0  0  0  0  0  0  0  0  0  0
    5.3839  -14.2716    0.0000 C   0  0  0  0  0  0  0  0  0  0  0  0
    4.9074  -14.9202    0.0000 C   0  0  0  0  0  0  0  0  0  0  0  0
    6.7548  -14.8961    0.0000 C   0  0  0  0  0  0  0  0  0  0  0  0
    6.5663  -15.6944    0.0000 C   0  0  0  0  0  0  0  0  0  0  0  0
    5.7913  -16.0603    0.0000 C   0  0  0  0  0  0  0  0  0  0  0  0
    5.0839  -15.7106    0.0000 C   0  0  0  0  0  0  0  0  0  0  0  0
    5.0019  -13.5405    0.0000 O   0  0  0  0  0  0  0  0  0  0  0  0
    6.5795  -13.5009    0.0000 O   0  0  0  0  0  0  0  0  0  0  0  0
    7.5797  -14.8949    0.0000 C   0  0  0  0  0  0  0  0  0  0  0  0
    7.9933  -15.6087    0.0000 N   0  0  0  0  0  0  0  0  0  0  0  0
    4.0838  -14.9559    0.0000 C   0  0  0  0  0  0  0  0  0  0  0  0
    3.6401  -14.2604    0.0000 N   0  0  0  0  0  0  0  0  0  0  0  0
    5.7838  -16.8852    0.0000 C   0  0  0  0  0  0  0  0  0  0  0  0
    5.0657  -17.2912    0.0000 N   0  0  0  0  0  0  0  0  0  0  0  0
    7.5787  -16.3240    0.0000 C   0  0  0  0  0  0  0  0  0  0  0  0
    7.9888  -17.0357    0.0000 C   0  0  0  0  0  0  0  0  0  0  0  0
    8.8140  -17.0388    0.0000 C   0  0  0  0  0  0  0  0  0  0  0  0
    9.2276  -16.3238    0.0000 C   0  0  0  0  0  0  0  0  0  0  0  0
    8.8159  -15.6059    0.0000 C   0  0  0  0  0  0  0  0  0  0  0  0
    4.0205  -13.5253    0.0000 C   0  0  0  0  0  0  0  0  0  0  0  0
    3.5803  -12.8319    0.0000 C   0  0  0  0  0  0  0  0  0  0  0  0
    2.7557  -12.8643    0.0000 C   0  0  0  0  0  0  0  0  0  0  0  0
    2.3731  -13.5961    0.0000 C   0  0  0  0  0  0  0  0  0  0  0  0
    2.8151  -14.2958    0.0000 C   0  0  0  0  0  0  0  0  0  0  0  0
    4.3557  -16.8686    0.0000 C   0  0  0  0  0  0  0  0  0  0  0  0
    3.6397  -17.2711    0.0000 C   0  0  0  0  0  0  0  0  0  0  0  0
    3.6280  -18.0963    0.0000 C   0  0  0  0  0  0  0  0  0  0  0  0
    4.3385  -18.5174    0.0000 C   0  0  0  0  0  0  0  0  0  0  0  0
    5.0607  -18.1133    0.0000 C   0  0  0  0  0  0  0  0  0  0  0  0
   10.0526  -16.3254    0.0000 C   0  0  0  0  0  0  0  0  0  0  0  0
    4.3282  -19.3423    0.0000 C   0  0  0  0  0  0  0  0  0  0  0  0
    1.5488  -13.6299    0.0000 C   0  0  0  0  0  0  0  0  0  0  0  0
  2  8  2  0
  1  2  1  0
  1  9  1  0
  2  3  1  0
 11 20  1  0
 16 17  1  0
 17 18  1  0
 18 19  1  0
 19 20  1  0
 13 21  1  0
  4 10  1  0
  1  4  2  0
 10 11  1  0
  5  6  2  0
  3 12  1  0
 13 25  1  0
 21 22  1  0
 22 23  1  0
 23 24  1  0
 24 25  1  0
 15 26  1  0
  6  7  1  0
 12 13  1  0
  7  3  2  0
  6 14  1  0
  4  5  1  0
 15 30  1  0
 26 27  1  0
 27 28  1  0
 28 29  1  0
 29 30  1  0
 14 15  1  0
 19 31  1  0
 11 16  1  0
 29 32  1  0
 24 33  1  0
M  END
> <chembl_id>
CHEMBL1254678

> <chembl_pref_name>
None

$$$$
CHEMBL1909747
     RDKit          2D

 30 33  0  0  0  0  0  0  0  0999 V2000
   -1.7860   -0.4113    0.0000 C   0  0  0  0  0  0  0  0  0  0  0  0
   -1.7853    0.4137    0.0000 C   0  0  0  0  0  0  0  0  0  0  0  0
   -1.0705    0.8256    0.0000 C   0  0  0  0  0  0  0  0  0  0  0  0
   -0.3563    0.4125    0.0000 C   0  0  0  0  0  0  0  0  0  0  0  0
    0.3585    0.8244    0.0000 C   0  0  0  0  0  0  0  0  0  0  0  0
    1.0726    0.4113    0.0000 C   0  0  0  0  0  0  0  0  0  0  0  0
    1.0719   -0.4137    0.0000 C   0  0  0  0  0  0  0  0  0  0  0  0
    0.3571   -0.8256    0.0000 C   0  0  0  0  0  0  0  0  0  0  0  0
   -0.3571   -0.4125    0.0000 C   0  0  0  0  0  0  0  0  0  0  0  0
   -1.0719   -0.8244    0.0000 O   0  0  0  0  0  0  0  0  0  0  0  0
   -1.0698    1.6506    0.0000 O   0  0  0  0  0  0  0  0  0  0  0  0
    0.3592    1.6494    0.0000 O   0  0  0  0  0  0  0  0  0  0  0  0
    1.7874    0.8232    0.0000 O   0  0  0  0  0  0  0  0  0  0  0  0
    2.5015    0.4100    0.0000 C   0  0  0  0  0  0  0  0  0  0  0  0
    3.2164    0.8219    0.0000 C   0  0  0  0  0  0  0  0  0  0  0  0
    3.2171    1.6469    0.0000 C   0  0  0  0  0  0  0  0  0  0  0  0
    3.9319    2.0588    0.0000 C   0  0  0  0  0  0  0  0  0  0  0  0
    4.6460    1.6457    0.0000 C   0  0  0  0  0  0  0  0  0  0  0  0
    4.6453    0.8207    0.0000 C   0  0  0  0  0  0  0  0  0  0  0  0
    3.9305    0.4088    0.0000 C   0  0  0  0  0  0  0  0  0  0  0  0
   -2.5008   -0.8232    0.0000 O   0  0  0  0  0  0  0  0  0  0  0  0
   -3.2149   -0.4100    0.0000 C   0  0  0  0  0  0  0  0  0  0  0  0
   -3.9298   -0.8219    0.0000 C   0  0  0  0  0  0  0  0  0  0  0  0
   -3.9305   -1.6469    0.0000 C   0  0  0  0  0  0  0  0  0  0  0  0
   -4.6453   -2.0588    0.0000 C   0  0  0  0  0  0  0  0  0  0  0  0
   -5.3594   -1.6457    0.0000 C   0  0  0  0  0  0  0  0  0  0  0  0
   -4.6439   -0.4088    0.0000 C   0  0  0  0  0  0  0  0  0  0  0  0
    5.3594    0.4076    0.0000 Cl  0  0  0  0  0  0  0  0  0  0  0  0
   -5.3587   -0.8207    0.0000 C   0  0  0  0  0  0  0  0  0  0  0  0
   -6.0732   -0.4082    0.0000 I   0  0  0  0  0  0  0  0  0  0  0  0
  1  2  2  0
  2  3  1  0
  3  4  1  0
  4  5  1  0
  5  6  2  0
  6  7  1  0
  7  8  2  0
  8  9  1  0
  4  9  2  0
  9 10  1  0
  1 10  1  0
  3 11  2  0
  5 12  1  0
 14 15  1  0
 15 16  1  0
 16 17  2  0
 17 18  1  0
 18 19  2  0
 19 20  1  0
 15 20  2  0
 13 14  1  0
  6 13  1  0
 22 23  1  0
 23 24  1  0
 24 25  2  0
 25 26  1  0
 26 29  2  0
 29 27  1  0
 23 27  2  0
 21 22  1  0
  1 21  1  0
 19 28  1  0
 29 30  1  0
M  END
> <chembl_id>
CHEMBL1909747

> <chembl_pref_name>
None

$$$$
CHEMBL4519588
     RDKit          2D

 22 25  0  0  0  0  0  0  0  0999 V2000
   22.2940  -12.7140    0.0000 S   0  0  0  0  0  0  0  0  0  0  0  0
   22.7929  -12.0666    0.0000 C   0  0  0  0  0  0  0  0  0  0  0  0
   22.3287  -11.3910    0.0000 N   0  0  0  0  0  0  0  0  0  0  0  0
   21.5236  -12.4415    0.0000 C   0  0  0  0  0  0  0  0  0  0  0  0
   21.5469  -11.6269    0.0000 C   0  0  0  0  0  0  0  0  0  0  0  0
   20.8541  -11.2013    0.0000 C   0  0  0  0  0  0  0  0  0  0  0  0
   20.1376  -11.5892    0.0000 C   0  0  0  0  0  0  0  0  0  0  0  0
   20.1183  -12.4070    0.0000 N   0  0  0  0  0  0  0  0  0  0  0  0
   20.8117  -12.8289    0.0000 C   0  0  0  0  0  0  0  0  0  0  0  0
   23.6066  -12.0903    0.0000 C   0  0  0  0  0  0  0  0  0  0  0  0
   23.9951  -12.8105    0.0000 C   0  0  0  0  0  0  0  0  0  0  0  0
   24.8112  -12.8331    0.0000 C   0  0  0  0  0  0  0  0  0  0  0  0
   25.2398  -12.1363    0.0000 C   0  0  0  0  0  0  0  0  0  0  0  0
   24.8463  -11.4152    0.0000 N   0  0  0  0  0  0  0  0  0  0  0  0
   24.0315  -11.3961    0.0000 C   0  0  0  0  0  0  0  0  0  0  0  0
   23.6403  -10.6786    0.0000 O   0  0  0  0  0  0  0  0  0  0  0  0
   24.0661   -9.9811    0.0000 C   0  0  0  0  0  0  0  0  0  0  0  0
   24.8826  -10.0042    0.0000 C   0  0  0  0  0  0  0  0  0  0  0  0
   25.3083   -9.3075    0.0000 C   0  0  0  0  0  0  0  0  0  0  0  0
   24.9171   -8.5890    0.0000 C   0  0  0  0  0  0  0  0  0  0  0  0
   24.0959   -8.5715    0.0000 C   0  0  0  0  0  0  0  0  0  0  0  0
   23.6739   -9.2689    0.0000 C   0  0  0  0  0  0  0  0  0  0  0  0
  4  1  1  0
  1  2  1  0
  2  3  2  0
  3  5  1  0
  4  5  2  0
  5  6  1  0
  6  7  2  0
  7  8  1  0
  8  9  2  0
  9  4  1  0
 10 11  2  0
 11 12  1  0
 12 13  2  0
 13 14  1  0
 14 15  2  0
 15 10  1  0
  2 10  1  0
 15 16  1  0
 16 17  1  0
 17 18  2  0
 18 19  1  0
 19 20  2  0
 20 21  1  0
 21 22  2  0
 22 17  1  0
M  END
> <chembl_id>
CHEMBL4519588

> <chembl_pref_name>
None

$$$$
CHEMBL1254524
     RDKit          2D

 30 33  0  0  0  0  0  0  0  0999 V2000
   -1.5388   -5.0823    0.0000 C   0  0  0  0  0  0  0  0  0  0  0  0
   -2.3882   -5.1042    0.0000 C   0  0  0  0  0  0  0  0  0  0  0  0
   -2.8646   -5.7527    0.0000 C   0  0  0  0  0  0  0  0  0  0  0  0
   -1.0176   -5.7286    0.0000 C   0  0  0  0  0  0  0  0  0  0  0  0
   -1.2061   -6.5267    0.0000 C   0  0  0  0  0  0  0  0  0  0  0  0
   -1.9809   -6.8924    0.0000 C   0  0  0  0  0  0  0  0  0  0  0  0
   -2.6880   -6.5428    0.0000 C   0  0  0  0  0  0  0  0  0  0  0  0
   -2.7701   -4.3733    0.0000 O   0  0  0  0  0  0  0  0  0  0  0  0
   -1.1930   -4.3336    0.0000 O   0  0  0  0  0  0  0  0  0  0  0  0
   -0.1929   -5.7273    0.0000 C   0  0  0  0  0  0  0  0  0  0  0  0
    0.2206   -6.4409    0.0000 N   0  0  0  0  0  0  0  0  0  0  0  0
   -3.6878   -5.7883    0.0000 C   0  0  0  0  0  0  0  0  0  0  0  0
   -4.1315   -5.0930    0.0000 N   0  0  0  0  0  0  0  0  0  0  0  0
   -1.9883   -7.7170    0.0000 C   0  0  0  0  0  0  0  0  0  0  0  0
   -2.7062   -8.1229    0.0000 N   0  0  0  0  0  0  0  0  0  0  0  0
   -0.1939   -7.1561    0.0000 C   0  0  0  0  0  0  0  0  0  0  0  0
    0.2160   -7.8675    0.0000 C   0  0  0  0  0  0  0  0  0  0  0  0
    1.0411   -7.8705    0.0000 C   0  0  0  0  0  0  0  0  0  0  0  0
    1.4545   -7.1558    0.0000 C   0  0  0  0  0  0  0  0  0  0  0  0
    1.0430   -6.4381    0.0000 C   0  0  0  0  0  0  0  0  0  0  0  0
   -3.7512   -4.3581    0.0000 C   0  0  0  0  0  0  0  0  0  0  0  0
   -4.1912   -3.6648    0.0000 C   0  0  0  0  0  0  0  0  0  0  0  0
   -5.0156   -3.6972    0.0000 C   0  0  0  0  0  0  0  0  0  0  0  0
   -5.3980   -4.4290    0.0000 C   0  0  0  0  0  0  0  0  0  0  0  0
   -4.9561   -5.1283    0.0000 C   0  0  0  0  0  0  0  0  0  0  0  0
   -3.4161   -7.7004    0.0000 C   0  0  0  0  0  0  0  0  0  0  0  0
   -4.1318   -8.1028    0.0000 C   0  0  0  0  0  0  0  0  0  0  0  0
   -4.1435   -8.9277    0.0000 C   0  0  0  0  0  0  0  0  0  0  0  0
   -3.4333   -9.3488    0.0000 C   0  0  0  0  0  0  0  0  0  0  0  0
   -2.7113   -8.9448    0.0000 C   0  0  0  0  0  0  0  0  0  0  0  0
 14 15  1  0
 11 16  1  0
  2  8  2  0
  1  2  1  0
  1  9  1  0
  2  3  1  0
 11 20  1  0
 16 17  1  0
 17 18  1  0
 18 19  1  0
 19 20  1  0
 13 21  1  0
  4 10  1  0
  1  4  2  0
 10 11  1  0
  5  6  2  0
  3 12  1  0
 13 25  1  0
 21 22  1  0
 22 23  1  0
 23 24  1  0
 24 25  1  0
 15 26  1  0
  6  7  1  0
 12 13  1  0
  7  3  2  0
  6 14  1  0
  4  5  1  0
 15 30  1  0
 26 27  1  0
 27 28  1  0
 28 29  1  0
 29 30  1  0
M  END
> <chembl_id>
CHEMBL1254524

> <chembl_pref_name>
None

$$$$
CHEMBL3923582
     RDKit          2D

 24 27  0  0  0  0  0  0  0  0999 V2000
   11.1188  -11.5026    0.0000 O   0  0  0  0  0  0  0  0  0  0  0  0
   11.9112  -11.7172    0.0000 S   0  0  0  0  0  0  0  0  0  0  0  0
   11.7008  -10.9236    0.0000 O   0  0  0  0  0  0  0  0  0  0  0  0
   11.9356  -12.5349    0.0000 N   0  0  0  0  0  0  0  0  0  0  0  0
   11.2379  -12.9614    0.0000 N   0  0  0  0  0  0  0  0  0  0  0  0
   11.9938  -14.9854    0.0000 C   0  0  0  0  0  0  0  0  0  0  0  0
   11.2961  -15.4118    0.0000 N   0  0  0  0  0  0  0  0  0  0  0  0
   10.5804  -15.0215    0.0000 C   0  0  0  0  0  0  0  0  0  0  0  0
   10.5583  -14.2047    0.0000 C   0  0  0  0  0  0  0  0  0  0  0  0
   11.2560  -13.7782    0.0000 C   0  0  0  0  0  0  0  0  0  0  0  0
   11.9758  -14.1685    0.0000 N   0  0  0  0  0  0  0  0  0  0  0  0
    9.7761  -13.9708    0.0000 C   0  0  0  0  0  0  0  0  0  0  0  0
    9.3126  -14.6434    0.0000 C   0  0  0  0  0  0  0  0  0  0  0  0
    9.8088  -15.2926    0.0000 S   0  0  0  0  0  0  0  0  0  0  0  0
    8.4993  -14.5772    0.0000 C   0  0  0  0  0  0  0  0  0  0  0  0
    8.1497  -13.8385    0.0000 C   0  0  0  0  0  0  0  0  0  0  0  0
    8.6133  -13.1660    0.0000 C   0  0  0  0  0  0  0  0  0  0  0  0
    9.4265  -13.2321    0.0000 C   0  0  0  0  0  0  0  0  0  0  0  0
   12.6124  -11.2918    0.0000 C   0  0  0  0  0  0  0  0  0  0  0  0
   13.3266  -11.6832    0.0000 N   0  0  0  0  0  0  0  0  0  0  0  0
   14.0234  -11.2577    0.0000 C   0  0  0  0  0  0  0  0  0  0  0  0
   14.0033  -10.4399    0.0000 C   0  0  0  0  0  0  0  0  0  0  0  0
   13.2806  -10.0495    0.0000 C   0  0  0  0  0  0  0  0  0  0  0  0
   12.5868  -10.4773    0.0000 C   0  0  0  0  0  0  0  0  0  0  0  0
  2  1  2  0
  3  2  2  0
  4  5  1  0
  6  7  1  0
  7  8  2  0
  8  9  1  0
  9 10  2  0
 10 11  1  0
  6 11  2  0
 12 13  2  0
 13 14  1  0
 15 16  1  0
 16 17  1  0
 17 18  1  0
 12 18  1  0
 13 15  1  0
  8 14  1  0
  9 12  1  0
  5 10  1  0
  4  2  1  0
  2 19  1  0
 19 20  2  0
 20 21  1  0
 21 22  2  0
 22 23  1  0
 23 24  2  0
 24 19  1  0
M  END
> <chembl_id>
CHEMBL3923582

> <chembl_pref_name>
None

$$$$
CHEMBL299415
     RDKit          2D

 19 21  0  0  0  0  0  0  0  0999 V2000
    6.9542   -7.0125    0.0000 N   0  0  0  0  0  0  0  0  0  0  0  0
    7.4792   -6.7125    0.0000 C   0  0  0  0  0  0  0  0  0  0  0  0
    7.4792   -6.1125    0.0000 C   0  0  0  0  0  0  0  0  0  0  0  0
    6.4417   -6.7125    0.0000 C   0  0  0  0  0  0  0  0  0  0  0  0
    6.4417   -6.1125    0.0000 N   0  0  0  0  0  0  0  0  0  0  0  0
    6.9542   -5.8125    0.0000 C   0  0  0  0  0  0  0  0  0  0  0  0
    8.0417   -5.9250    0.0000 N   0  0  0  0  0  0  0  0  0  0  0  0
    8.0542   -6.8917    0.0000 N   0  0  0  0  0  0  0  0  0  0  0  0
    8.4000   -6.4042    0.0000 C   0  0  0  0  0  0  0  0  0  0  0  0
    5.9250   -7.0125    0.0000 N   0  0  0  0  0  0  0  0  0  0  0  0
    4.8917   -5.8125    0.0000 C   0  0  0  0  0  0  0  0  0  0  0  0
    5.4042   -6.1125    0.0000 C   0  0  0  0  0  0  0  0  0  0  0  0
    6.9542   -5.2125    0.0000 O   0  0  0  0  0  0  0  0  0  0  0  0
    5.4042   -6.7125    0.0000 C   0  0  0  0  0  0  0  0  0  0  0  0
    4.3667   -6.1125    0.0000 C   0  0  0  0  0  0  0  0  0  0  0  0
    4.3667   -6.7167    0.0000 C   0  0  0  0  0  0  0  0  0  0  0  0
    4.8917   -5.2125    0.0000 F   0  0  0  0  0  0  0  0  0  0  0  0
    4.8917   -7.0125    0.0000 C   0  0  0  0  0  0  0  0  0  0  0  0
    3.8500   -5.8125    0.0000 F   0  0  0  0  0  0  0  0  0  0  0  0
  2  1  1  0
  3  2  1  0
  4  1  2  0
  5  4  1  0
  6  5  1  0
  7  3  1  0
  8  2  2  0
  9  8  1  0
 10  4  1  0
 11 12  2  0
 12 14  1  0
 13  6  1  0
 14 10  1  0
 15 16  2  0
 16 18  1  0
 17 11  1  0
 18 14  2  0
 19 15  1  0
  3  6  2  0
  9  7  2  0
 11 15  1  0
M  END
> <chembl_id>
CHEMBL299415

> <chembl_pref_name>
None

$$$$
CHEMBL3974447
     RDKit          2D

 27 31  0  0  0  0  0  0  0  0999 V2000
   12.7721  -10.3300    0.0000 C   0  0  0  0  0  0  0  0  0  0  0  0
   12.0745  -10.7564    0.0000 C   0  0  0  0  0  0  0  0  0  0  0  0
   11.3587  -10.3661    0.0000 O   0  0  0  0  0  0  0  0  0  0  0  0
   12.0966  -11.5733    0.0000 N   0  0  0  0  0  0  0  0  0  0  0  0
   11.3989  -11.9997    0.0000 N   0  0  0  0  0  0  0  0  0  0  0  0
   12.1548  -14.0237    0.0000 C   0  0  0  0  0  0  0  0  0  0  0  0
   11.4571  -14.4502    0.0000 N   0  0  0  0  0  0  0  0  0  0  0  0
   10.7414  -14.0599    0.0000 C   0  0  0  0  0  0  0  0  0  0  0  0
   10.7192  -13.2430    0.0000 C   0  0  0  0  0  0  0  0  0  0  0  0
   11.4169  -12.8166    0.0000 C   0  0  0  0  0  0  0  0  0  0  0  0
   12.1368  -13.2069    0.0000 N   0  0  0  0  0  0  0  0  0  0  0  0
    9.9371  -13.0092    0.0000 C   0  0  0  0  0  0  0  0  0  0  0  0
    9.4735  -13.6817    0.0000 C   0  0  0  0  0  0  0  0  0  0  0  0
    9.9698  -14.3310    0.0000 S   0  0  0  0  0  0  0  0  0  0  0  0
    8.6603  -13.6156    0.0000 C   0  0  0  0  0  0  0  0  0  0  0  0
    8.3107  -12.8769    0.0000 C   0  0  0  0  0  0  0  0  0  0  0  0
    8.7743  -12.2043    0.0000 C   0  0  0  0  0  0  0  0  0  0  0  0
    9.5875  -12.2704    0.0000 C   0  0  0  0  0  0  0  0  0  0  0  0
   13.4856  -10.7243    0.0000 C   0  0  0  0  0  0  0  0  0  0  0  0
   13.4396   -9.0895    0.0000 N   0  0  0  0  0  0  0  0  0  0  0  0
   12.7453   -9.5176    0.0000 C   0  0  0  0  0  0  0  0  0  0  0  0
   14.1627   -9.4802    0.0000 C   0  0  0  0  0  0  0  0  0  0  0  0
   14.1826  -10.2956    0.0000 C   0  0  0  0  0  0  0  0  0  0  0  0
   14.8976  -10.6843    0.0000 C   0  0  0  0  0  0  0  0  0  0  0  0
   15.5932  -10.2587    0.0000 C   0  0  0  0  0  0  0  0  0  0  0  0
   15.5692   -9.4403    0.0000 C   0  0  0  0  0  0  0  0  0  0  0  0
   14.8538   -9.0553    0.0000 C   0  0  0  0  0  0  0  0  0  0  0  0
  4  5  1  0
  2  3  2  0
  2  4  1  0
  1  2  1  0
  6  7  1  0
  7  8  2  0
  8  9  1  0
  9 10  2  0
 10 11  1  0
  6 11  2  0
 12 13  2  0
 13 14  1  0
 15 16  1  0
 16 17  1  0
 17 18  1  0
 12 18  1  0
 13 15  1  0
  8 14  1  0
  9 12  1  0
  5 10  1  0
  1 19  2  0
 19 23  1  0
 22 20  1  0
 20 21  2  0
 21  1  1  0
 22 23  1  0
 23 24  2  0
 24 25  1  0
 25 26  2  0
 26 27  1  0
 27 22  2  0
M  END
> <chembl_id>
CHEMBL3974447

> <chembl_pref_name>
None

$$$$
CHEMBL4089207
     RDKit          2D

 40 42  0  0  0  0  0  0  0  0999 V2000
   19.6002   -9.2078    0.0000 O   0  0  0  0  0  0  0  0  0  0  0  0
   20.0129   -9.9177    0.0000 S   0  0  0  0  0  0  0  0  0  0  0  0
   20.4213   -9.2054    0.0000 O   0  0  0  0  0  0  0  0  0  0  0  0
   28.9030  -12.2537    0.0000 O   0  0  0  0  0  0  0  0  0  0  0  0
   28.4985  -11.5480    0.0000 S   0  0  0  0  0  0  0  0  0  0  0  0
   28.0895  -12.2511    0.0000 O   0  0  0  0  0  0  0  0  0  0  0  0
   23.5541  -10.3181    0.0000 N   0  0  0  0  0  0  0  0  0  0  0  0
   23.5541  -11.1353    0.0000 C   0  0  0  0  0  0  0  0  0  0  0  0
   24.2594  -11.5397    0.0000 C   0  0  0  0  0  0  0  0  0  0  0  0
   24.9647  -11.1353    0.0000 N   0  0  0  0  0  0  0  0  0  0  0  0
   24.9647  -10.3181    0.0000 C   0  0  0  0  0  0  0  0  0  0  0  0
   24.2594   -9.9053    0.0000 C   0  0  0  0  0  0  0  0  0  0  0  0
   25.6718  -11.5449    0.0000 C   0  0  0  0  0  0  0  0  0  0  0  0
   26.3801  -11.1373    0.0000 C   0  0  0  0  0  0  0  0  0  0  0  0
   27.0872  -11.5469    0.0000 C   0  0  0  0  0  0  0  0  0  0  0  0
   27.7955  -11.1394    0.0000 N   0  0  0  0  0  0  0  0  0  0  0  0
   29.2109  -11.1414    0.0000 C   0  0  0  0  0  0  0  0  0  0  0  0
   22.8452   -9.9116    0.0000 C   0  0  0  0  0  0  0  0  0  0  0  0
   22.1387  -10.3222    0.0000 C   0  0  0  0  0  0  0  0  0  0  0  0
   21.4298   -9.9157    0.0000 C   0  0  0  0  0  0  0  0  0  0  0  0
   20.7233  -10.3264    0.0000 N   0  0  0  0  0  0  0  0  0  0  0  0
   19.3079  -10.3305    0.0000 C   0  0  0  0  0  0  0  0  0  0  0  0
   18.5998   -9.9205    0.0000 C   0  0  0  0  0  0  0  0  0  0  0  0
   17.8938  -10.3305    0.0000 C   0  0  0  0  0  0  0  0  0  0  0  0
   17.8957  -11.1486    0.0000 C   0  0  0  0  0  0  0  0  0  0  0  0
   18.6096  -11.5549    0.0000 C   0  0  0  0  0  0  0  0  0  0  0  0
   19.3127  -11.1426    0.0000 C   0  0  0  0  0  0  0  0  0  0  0  0
   29.9145  -11.5551    0.0000 C   0  0  0  0  0  0  0  0  0  0  0  0
   30.6224  -11.1482    0.0000 C   0  0  0  0  0  0  0  0  0  0  0  0
   30.6240  -10.3302    0.0000 C   0  0  0  0  0  0  0  0  0  0  0  0
   29.9119   -9.9207    0.0000 C   0  0  0  0  0  0  0  0  0  0  0  0
   29.2070  -10.3299    0.0000 C   0  0  0  0  0  0  0  0  0  0  0  0
   17.1898  -11.5602    0.0000 C   0  0  0  0  0  0  0  0  0  0  0  0
   16.4803  -11.1546    0.0000 C   0  0  0  0  0  0  0  0  0  0  0  0
   17.1932  -12.3773    0.0000 C   0  0  0  0  0  0  0  0  0  0  0  0
   16.4759  -11.9607    0.0000 C   0  0  0  0  0  0  0  0  0  0  0  0
   31.3317   -9.9216    0.0000 C   0  0  0  0  0  0  0  0  0  0  0  0
   32.0394  -10.3303    0.0000 F   0  0  0  0  0  0  0  0  0  0  0  0
   31.3318   -9.1045    0.0000 F   0  0  0  0  0  0  0  0  0  0  0  0
   32.0355   -9.5050    0.0000 F   0  0  0  0  0  0  0  0  0  0  0  0
  2  1  2  0
  3  2  2  0
  5  4  2  0
  6  5  2  0
  7  8  1  0
  7 12  1  0
  8  9  1  0
  9 10  1  0
 10 11  1  0
 11 12  1  0
 10 13  1  0
 13 14  1  0
 14 15  1  0
 15 16  1  0
 16  5  1  0
  5 17  1  0
  7 18  1  0
 18 19  1  0
 19 20  1  0
 20 21  1  0
 21  2  1  0
  2 22  1  0
 22 23  2  0
 23 24  1  0
 24 25  2  0
 25 26  1  0
 26 27  2  0
 27 22  1  0
 17 28  2  0
 28 29  1  0
 29 30  2  0
 30 31  1  0
 31 32  2  0
 32 17  1  0
 25 33  1  0
 33 34  1  0
 33 35  1  0
 33 36  1  0
 30 37  1  0
 37 38  1  0
 37 39  1  0
 37 40  1  0
M  END
> <chembl_id>
CHEMBL4089207

> <chembl_pref_name>
None

$$$$
CHEMBL485089
     RDKit          2D

 23 26  0  0  0  0  0  0  0  0999 V2000
   11.8647   -6.9132    0.0000 C   0  0  0  0  0  0  0  0  0  0  0  0
   11.8636   -7.7397    0.0000 C   0  0  0  0  0  0  0  0  0  0  0  0
   12.5776   -8.1521    0.0000 C   0  0  0  0  0  0  0  0  0  0  0  0
   12.5758   -6.5009    0.0000 C   0  0  0  0  0  0  0  0  0  0  0  0
   13.2904   -6.9096    0.0000 C   0  0  0  0  0  0  0  0  0  0  0  0
   13.2893   -7.7417    0.0000 C   0  0  0  0  0  0  0  0  0  0  0  0
   14.0054   -8.1566    0.0000 N   0  0  0  0  0  0  0  0  0  0  0  0
   14.0078   -6.4923    0.0000 C   0  0  0  0  0  0  0  0  0  0  0  0
   14.7284   -6.9116    0.0000 C   0  0  0  0  0  0  0  0  0  0  0  0
   14.7271   -7.7397    0.0000 C   0  0  0  0  0  0  0  0  0  0  0  0
   15.4424   -8.1530    0.0000 C   0  0  0  0  0  0  0  0  0  0  0  0
   16.1595   -7.7394    0.0000 C   0  0  0  0  0  0  0  0  0  0  0  0
   16.1568   -6.9082    0.0000 C   0  0  0  0  0  0  0  0  0  0  0  0
   15.4409   -6.4987    0.0000 C   0  0  0  0  0  0  0  0  0  0  0  0
   14.0078   -5.6682    0.0000 O   0  0  0  0  0  0  0  0  0  0  0  0
   15.4421   -8.9771    0.0000 C   0  0  0  0  0  0  0  0  0  0  0  0
   14.7283   -9.3888    0.0000 O   0  0  0  0  0  0  0  0  0  0  0  0
   16.1556   -9.3894    0.0000 N   0  0  0  0  0  0  0  0  0  0  0  0
   16.1506  -10.2102    0.0000 C   0  0  0  0  0  0  0  0  0  0  0  0
   16.8600  -10.6225    0.0000 C   0  0  0  0  0  0  0  0  0  0  0  0
   17.5764  -10.2142    0.0000 O   0  0  0  0  0  0  0  0  0  0  0  0
   17.5787   -9.3892    0.0000 C   0  0  0  0  0  0  0  0  0  0  0  0
   16.8646   -8.9724    0.0000 C   0  0  0  0  0  0  0  0  0  0  0  0
 10 11  1  0
 11 12  2  0
  2  3  1  0
 12 13  1  0
  3  6  2  0
 13 14  2  0
 14  9  1  0
  1  2  2  0
  8 15  2  0
  5  8  1  0
 11 16  1  0
  6  7  1  0
 16 17  2  0
  7 10  1  0
 16 18  1  0
 18 19  1  0
  9  8  1  0
  5  4  2  0
  4  1  1  0
  9 10  2  0
  5  6  1  0
 18 23  1  0
 19 20  1  0
 20 21  1  0
 21 22  1  0
 22 23  1  0
M  END
> <chembl_id>
CHEMBL485089

> <chembl_pref_name>
None

$$$$
CHEMBL3735908
     RDKit          2D

 20 22  0  0  0  0  0  0  0  0999 V2000
   -2.3155    0.7475    0.0000 C   0  0  0  0  0  0  0  0  0  0  0  0
   -2.3155   -0.7475    0.0000 C   0  0  0  0  0  0  0  0  0  0  0  0
   -1.0028   -1.5132    0.0000 C   0  0  0  0  0  0  0  0  0  0  0  0
   -1.0028    1.5132    0.0000 C   0  0  0  0  0  0  0  0  0  0  0  0
    0.2917    0.7475    0.0000 C   0  0  0  0  0  0  0  0  0  0  0  0
    0.2917   -0.7475    0.0000 C   0  0  0  0  0  0  0  0  0  0  0  0
    1.7138   -1.2033    0.0000 N   0  0  0  0  0  0  0  0  0  0  0  0
    2.5889    0.0182    0.0000 N   0  0  0  0  0  0  0  0  0  0  0  0
    1.7138    1.2033    0.0000 N   0  0  0  0  0  0  0  0  0  0  0  0
   -3.3560    1.3452    0.0000 Cl  0  0  0  0  0  0  0  0  0  0  0  0
   -3.3560   -1.3452    0.0000 Cl  0  0  0  0  0  0  0  0  0  0  0  0
    2.1852   -2.6281    0.0000 C   0  0  0  0  0  0  0  0  0  0  0  0
    1.2071   -3.7498    0.0000 O   0  0  0  0  0  0  0  0  0  0  0  0
    1.9971   -5.0249    0.0000 C   0  0  0  0  0  0  0  0  0  0  0  0
    3.4539   -4.6676    0.0000 C   0  0  0  0  0  0  0  0  0  0  0  0
    3.5643   -3.1717    0.0000 C   0  0  0  0  0  0  0  0  0  0  0  0
    4.5805   -2.5334    0.0000 O   0  0  0  0  0  0  0  0  0  0  0  0
    4.3702   -5.4425    0.0000 O   0  0  0  0  0  0  0  0  0  0  0  0
    1.4277   -6.4107    0.0000 C   0  0  0  0  0  0  0  0  0  0  0  0
    0.2385   -6.5715    0.0000 O   0  0  0  0  0  0  0  0  0  0  0  0
  1  2  1  0
  2  3  2  0
  3  6  1  0
  5  4  1  0
  4  1  2  0
  5  6  2  0
  6  7  1  0
  7  8  1  0
  8  9  2  0
  9  5  1  0
  1 10  1  0
  2 11  1  0
 12 13  1  0
 13 14  1  0
 14 15  1  0
 15 16  1  0
 16 12  1  0
  7 12  1  0
 16 17  1  0
 15 18  1  0
 14 19  1  0
 19 20  1  0
M  END
> <chembl_id>
CHEMBL3735908

> <chembl_pref_name>
None

$$$$
CHEMBL3120371
     RDKit          2D

 27 29  0  0  0  0  0  0  0  0999 V2000
    9.0537   -3.4421    0.0000 C   0  0  0  0  0  0  0  0  0  0  0  0
    9.0526   -4.2616    0.0000 C   0  0  0  0  0  0  0  0  0  0  0  0
    9.7606   -4.6706    0.0000 C   0  0  0  0  0  0  0  0  0  0  0  0
    9.7588   -3.0332    0.0000 C   0  0  0  0  0  0  0  0  0  0  0  0
   10.4675   -3.4385    0.0000 C   0  0  0  0  0  0  0  0  0  0  0  0
   10.4723   -4.2616    0.0000 C   0  0  0  0  0  0  0  0  0  0  0  0
   11.2567   -4.5115    0.0000 N   0  0  0  0  0  0  0  0  0  0  0  0
   11.7367   -3.8426    0.0000 C   0  0  0  0  0  0  0  0  0  0  0  0
   11.2488   -3.1796    0.0000 C   0  0  0  0  0  0  0  0  0  0  0  0
   11.5137   -5.2869    0.0000 C   0  0  0  0  0  0  0  0  0  0  0  0
   10.9687   -5.8973    0.0000 C   0  0  0  0  0  0  0  0  0  0  0  0
   11.2252   -6.6724    0.0000 C   0  0  0  0  0  0  0  0  0  0  0  0
   12.0263   -6.8382    0.0000 C   0  0  0  0  0  0  0  0  0  0  0  0
   12.5704   -6.2229    0.0000 C   0  0  0  0  0  0  0  0  0  0  0  0
   12.3110   -5.4502    0.0000 C   0  0  0  0  0  0  0  0  0  0  0  0
   11.4968   -2.4009    0.0000 C   0  0  0  0  0  0  0  0  0  0  0  0
   12.2951   -2.2263    0.0000 C   0  0  0  0  0  0  0  0  0  0  0  0
   12.5431   -1.4476    0.0000 O   0  0  0  0  0  0  0  0  0  0  0  0
   12.8455   -2.8304    0.0000 O   0  0  0  0  0  0  0  0  0  0  0  0
    8.3478   -3.0366    0.0000 Br  0  0  0  0  0  0  0  0  0  0  0  0
   12.8526   -4.8382    0.0000 C   0  0  0  0  0  0  0  0  0  0  0  0
   13.6534   -5.0012    0.0000 F   0  0  0  0  0  0  0  0  0  0  0  0
   12.5934   -4.0632    0.0000 F   0  0  0  0  0  0  0  0  0  0  0  0
   13.2567   -4.1272    0.0000 F   0  0  0  0  0  0  0  0  0  0  0  0
   12.2856   -7.6172    0.0000 N   0  0  0  0  0  0  0  0  0  0  0  0
   13.0862   -7.7814    0.0000 O   0  0  0  0  0  0  0  0  0  0  0  0
   11.7432   -8.2284    0.0000 O   0  0  0  0  0  0  0  0  0  0  0  0
  1  2  2  0
  2  3  1  0
  3  6  2  0
  5  4  2  0
  4  1  1  0
  5  6  1  0
  6  7  1  0
  7  8  1  0
  8  9  2  0
  9  5  1  0
 10 11  2  0
 11 12  1  0
 12 13  2  0
 13 14  1  0
 14 15  2  0
 15 10  1  0
  7 10  1  0
  9 16  1  0
 16 17  1  0
 17 18  2  0
 17 19  1  0
  1 20  1  0
 15 21  1  0
 21 22  1  0
 21 23  1  0
 21 24  1  0
 25 26  2  0
 25 27  1  0
 13 25  1  0
M  CHG  2  25   1  27  -1
M  END
> <chembl_id>
CHEMBL3120371

> <chembl_pref_name>
None

$$$$
CHEMBL4539070
     RDKit          2D

 20 22  0  0  0  0  0  0  0  0999 V2000
   37.9607   -2.3765    0.0000 N   0  0  0  0  0  0  0  0  0  0  0  0
   37.2977   -1.8944    0.0000 N   0  0  0  0  0  0  0  0  0  0  0  0
   36.6390   -2.3765    0.0000 C   0  0  0  0  0  0  0  0  0  0  0  0
   37.7063   -3.1532    0.0000 C   0  0  0  0  0  0  0  0  0  0  0  0
   36.8891   -3.1532    0.0000 N   0  0  0  0  0  0  0  0  0  0  0  0
   36.6366   -3.9304    0.0000 N   0  0  0  0  0  0  0  0  0  0  0  0
   37.2977   -4.4108    0.0000 C   0  0  0  0  0  0  0  0  0  0  0  0
   37.9588   -3.9304    0.0000 S   0  0  0  0  0  0  0  0  0  0  0  0
   37.2978   -5.2280    0.0000 C   0  0  0  0  0  0  0  0  0  0  0  0
   36.5903   -5.6333    0.0000 C   0  0  0  0  0  0  0  0  0  0  0  0
   36.5900   -6.4498    0.0000 C   0  0  0  0  0  0  0  0  0  0  0  0
   37.2983   -6.8591    0.0000 C   0  0  0  0  0  0  0  0  0  0  0  0
   38.0083   -6.4461    0.0000 C   0  0  0  0  0  0  0  0  0  0  0  0
   38.0051   -5.6311    0.0000 C   0  0  0  0  0  0  0  0  0  0  0  0
   38.7109   -5.2191    0.0000 O   0  0  0  0  0  0  0  0  0  0  0  0
   39.4205   -5.6242    0.0000 C   0  0  0  0  0  0  0  0  0  0  0  0
   40.1263   -5.2122    0.0000 C   0  0  0  0  0  0  0  0  0  0  0  0
   40.8359   -5.6174    0.0000 C   0  0  0  0  0  0  0  0  0  0  0  0
   41.5417   -5.2054    0.0000 C   0  0  0  0  0  0  0  0  0  0  0  0
   42.2458   -4.7931    0.0000 N   0  0  0  0  0  0  0  0  0  0  0  0
  4  1  2  0
  1  2  1  0
  2  3  2  0
  3  5  1  0
  4  5  1  0
  5  6  1  0
  6  7  2  0
  7  8  1  0
  8  4  1  0
  7  9  1  0
  9 10  2  0
 10 11  1  0
 11 12  2  0
 12 13  1  0
 13 14  2  0
 14  9  1  0
 14 15  1  0
 15 16  1  0
 16 17  1  0
 17 18  1  0
 18 19  1  0
 19 20  3  0
M  END
> <chembl_id>
CHEMBL4539070

> <chembl_pref_name>
None

$$$$
CHEMBL3920486
     RDKit          2D

 23 25  0  0  0  0  0  0  0  0999 V2000
   14.0673  -10.5059    0.0000 C   0  0  0  0  0  0  0  0  0  0  0  0
   14.0673  -11.3231    0.0000 C   0  0  0  0  0  0  0  0  0  0  0  0
   13.3582  -11.7316    0.0000 C   0  0  0  0  0  0  0  0  0  0  0  0
   12.6492  -11.3231    0.0000 C   0  0  0  0  0  0  0  0  0  0  0  0
   12.6492  -10.5059    0.0000 C   0  0  0  0  0  0  0  0  0  0  0  0
   13.3582  -10.0973    0.0000 C   0  0  0  0  0  0  0  0  0  0  0  0
   14.7723  -10.0973    0.0000 O   0  0  0  0  0  0  0  0  0  0  0  0
   11.9442  -11.7316    0.0000 O   0  0  0  0  0  0  0  0  0  0  0  0
   14.7723  -11.7316    0.0000 C   0  0  0  0  0  0  0  0  0  0  0  0
   15.4814  -11.3231    0.0000 C   0  0  0  0  0  0  0  0  0  0  0  0
   14.7723  -12.5488    0.0000 N   0  0  0  0  0  0  0  0  0  0  0  0
   14.0673  -12.9574    0.0000 N   0  0  0  0  0  0  0  0  0  0  0  0
   14.7723  -15.0004    0.0000 C   0  0  0  0  0  0  0  0  0  0  0  0
   14.0673  -15.4090    0.0000 N   0  0  0  0  0  0  0  0  0  0  0  0
   13.3582  -15.0004    0.0000 C   0  0  0  0  0  0  0  0  0  0  0  0
   13.3582  -14.1832    0.0000 C   0  0  0  0  0  0  0  0  0  0  0  0
   14.0673  -13.7746    0.0000 C   0  0  0  0  0  0  0  0  0  0  0  0
   14.7723  -14.1832    0.0000 N   0  0  0  0  0  0  0  0  0  0  0  0
   12.5810  -13.9327    0.0000 C   0  0  0  0  0  0  0  0  0  0  0  0
   12.1009  -14.5918    0.0000 C   0  0  0  0  0  0  0  0  0  0  0  0
   12.5810  -15.2551    0.0000 S   0  0  0  0  0  0  0  0  0  0  0  0
   11.2837  -14.5918    0.0000 C   0  0  0  0  0  0  0  0  0  0  0  0
   12.3305  -13.1554    0.0000 C   0  0  0  0  0  0  0  0  0  0  0  0
  1  2  1  0
  2  3  2  0
  3  4  1  0
  4  5  2  0
  5  6  1  0
  1  6  2  0
  1  7  1  0
  4  8  1  0
  9 10  1  0
 11 12  1  0
 13 14  1  0
 14 15  2  0
 15 16  1  0
 16 17  2  0
 17 18  1  0
 13 18  2  0
 19 20  2  0
 20 21  1  0
 15 21  1  0
 16 19  1  0
 20 22  1  0
 19 23  1  0
 12 17  1  0
  9 11  2  0
  2  9  1  0
M  END
> <chembl_id>
CHEMBL3920486

> <chembl_pref_name>
None

$$$$
CHEMBL3985576
     RDKit          2D

 20 22  0  0  0  0  0  0  0  0999 V2000
   29.0589  -11.6213    0.0000 C   0  0  0  0  0  0  0  0  0  0  0  0
   29.0408  -12.4383    0.0000 C   0  0  0  0  0  0  0  0  0  0  0  0
   28.3290  -12.8317    0.0000 C   0  0  0  0  0  0  0  0  0  0  0  0
   27.6270  -12.4122    0.0000 C   0  0  0  0  0  0  0  0  0  0  0  0
   27.6410  -11.5952    0.0000 C   0  0  0  0  0  0  0  0  0  0  0  0
   28.3569  -11.1977    0.0000 C   0  0  0  0  0  0  0  0  0  0  0  0
   29.7706  -11.2238    0.0000 O   0  0  0  0  0  0  0  0  0  0  0  0
   29.7427  -12.8578    0.0000 C   0  0  0  0  0  0  0  0  0  0  0  0
   30.4586  -12.4603    0.0000 C   0  0  0  0  0  0  0  0  0  0  0  0
   29.7287  -13.6748    0.0000 N   0  0  0  0  0  0  0  0  0  0  0  0
   29.0128  -14.0723    0.0000 N   0  0  0  0  0  0  0  0  0  0  0  0
   29.6826  -16.1258    0.0000 C   0  0  0  0  0  0  0  0  0  0  0  0
   28.9667  -16.5233    0.0000 N   0  0  0  0  0  0  0  0  0  0  0  0
   28.2689  -16.0997    0.0000 C   0  0  0  0  0  0  0  0  0  0  0  0
   28.2829  -15.2827    0.0000 C   0  0  0  0  0  0  0  0  0  0  0  0
   28.9988  -14.8893    0.0000 C   0  0  0  0  0  0  0  0  0  0  0  0
   29.6966  -15.3088    0.0000 N   0  0  0  0  0  0  0  0  0  0  0  0
   27.5086  -15.0152    0.0000 C   0  0  0  0  0  0  0  0  0  0  0  0
   27.0188  -15.6693    0.0000 C   0  0  0  0  0  0  0  0  0  0  0  0
   27.4850  -16.3372    0.0000 S   0  0  0  0  0  0  0  0  0  0  0  0
  1  2  1  0
  2  3  2  0
  3  4  1  0
  4  5  2  0
  5  6  1  0
  1  6  2  0
  1  7  1  0
  8  9  1  0
 10 11  1  0
 12 13  1  0
 13 14  2  0
 14 15  1  0
 15 16  2  0
 16 17  1  0
 12 17  2  0
 18 19  2  0
 19 20  1  0
 14 20  1  0
 15 18  1  0
 11 16  1  0
  8 10  2  0
  2  8  1  0
M  END
> <chembl_id>
CHEMBL3985576

> <chembl_pref_name>
None

$$$$
CHEMBL36877
     RDKit          2D

 18 20  0  0  0  0  0  0  0  0999 V2000
    4.1542   -4.7625    0.0000 N   0  0  0  0  0  0  0  0  0  0  0  0
    4.6750   -4.4542    0.0000 C   0  0  0  0  0  0  0  0  0  0  0  0
    4.6667   -3.8542    0.0000 C   0  0  0  0  0  0  0  0  0  0  0  0
    3.6375   -4.4542    0.0000 C   0  0  0  0  0  0  0  0  0  0  0  0
    3.6375   -3.8542    0.0000 N   0  0  0  0  0  0  0  0  0  0  0  0
    4.1542   -3.5542    0.0000 C   0  0  0  0  0  0  0  0  0  0  0  0
    5.2417   -3.6667    0.0000 N   0  0  0  0  0  0  0  0  0  0  0  0
    5.2417   -4.6417    0.0000 N   0  0  0  0  0  0  0  0  0  0  0  0
    5.6000   -4.1542    0.0000 C   0  0  0  0  0  0  0  0  0  0  0  0
    3.3375   -4.9792    0.0000 N   0  0  0  0  0  0  0  0  0  0  0  0
    4.1500   -2.9542    0.0000 O   0  0  0  0  0  0  0  0  0  0  0  0
    2.7375   -4.9792    0.0000 C   0  0  0  0  0  0  0  0  0  0  0  0
    1.5417   -4.9792    0.0000 C   0  0  0  0  0  0  0  0  0  0  0  0
    2.4375   -5.4917    0.0000 C   0  0  0  0  0  0  0  0  0  0  0  0
    2.4375   -4.4625    0.0000 C   0  0  0  0  0  0  0  0  0  0  0  0
    1.8375   -5.4917    0.0000 C   0  0  0  0  0  0  0  0  0  0  0  0
    1.8375   -4.4625    0.0000 C   0  0  0  0  0  0  0  0  0  0  0  0
    0.9417   -4.9792    0.0000 C   0  0  0  0  0  0  0  0  0  0  0  0
  2  1  2  0
  3  2  1  0
  4  1  1  0
  5  4  2  0
  6  5  1  0
  7  3  1  0
  8  2  1  0
  9  8  2  0
 10  4  1  0
 11  6  1  0
 12 10  1  0
 13 17  1  0
 14 12  2  0
 15 12  1  0
 16 14  1  0
 17 15  2  0
 18 13  1  0
  3  6  2  0
  9  7  1  0
 13 16  2  0
M  END
> <chembl_id>
CHEMBL36877

> <chembl_pref_name>
None

$$$$
CHEMBL4075810
     RDKit          2D

 42 44  0  0  0  0  0  0  0  0999 V2000
   12.8522   -5.0641    0.0000 O   0  0  0  0  0  0  0  0  0  0  0  0
   12.4477   -4.3584    0.0000 S   0  0  0  0  0  0  0  0  0  0  0  0
   12.0388   -5.0615    0.0000 O   0  0  0  0  0  0  0  0  0  0  0  0
    3.5494   -2.0182    0.0000 O   0  0  0  0  0  0  0  0  0  0  0  0
    3.9621   -2.7281    0.0000 S   0  0  0  0  0  0  0  0  0  0  0  0
    4.3706   -2.0157    0.0000 O   0  0  0  0  0  0  0  0  0  0  0  0
    7.5033   -3.1284    0.0000 N   0  0  0  0  0  0  0  0  0  0  0  0
    7.5033   -3.9456    0.0000 C   0  0  0  0  0  0  0  0  0  0  0  0
    8.2086   -4.3501    0.0000 C   0  0  0  0  0  0  0  0  0  0  0  0
    8.9139   -3.9456    0.0000 N   0  0  0  0  0  0  0  0  0  0  0  0
    8.9139   -3.1284    0.0000 C   0  0  0  0  0  0  0  0  0  0  0  0
    8.2086   -2.7157    0.0000 C   0  0  0  0  0  0  0  0  0  0  0  0
    9.6210   -4.3553    0.0000 C   0  0  0  0  0  0  0  0  0  0  0  0
    9.6198   -5.1724    0.0000 O   0  0  0  0  0  0  0  0  0  0  0  0
   10.3293   -3.9477    0.0000 C   0  0  0  0  0  0  0  0  0  0  0  0
   11.0364   -4.3573    0.0000 C   0  0  0  0  0  0  0  0  0  0  0  0
   11.7447   -3.9497    0.0000 N   0  0  0  0  0  0  0  0  0  0  0  0
    6.7944   -2.7219    0.0000 C   0  0  0  0  0  0  0  0  0  0  0  0
    6.7920   -1.9047    0.0000 O   0  0  0  0  0  0  0  0  0  0  0  0
    6.0879   -3.1326    0.0000 C   0  0  0  0  0  0  0  0  0  0  0  0
    5.3790   -2.7261    0.0000 C   0  0  0  0  0  0  0  0  0  0  0  0
    4.6725   -3.1367    0.0000 N   0  0  0  0  0  0  0  0  0  0  0  0
    3.2571   -3.1409    0.0000 C   0  0  0  0  0  0  0  0  0  0  0  0
   13.1601   -3.9518    0.0000 C   0  0  0  0  0  0  0  0  0  0  0  0
    2.5479   -2.7332    0.0000 C   0  0  0  0  0  0  0  0  0  0  0  0
    1.8433   -3.1453    0.0000 C   0  0  0  0  0  0  0  0  0  0  0  0
    1.8478   -3.9632    0.0000 C   0  0  0  0  0  0  0  0  0  0  0  0
    2.5628   -4.3672    0.0000 C   0  0  0  0  0  0  0  0  0  0  0  0
    3.2644   -3.9527    0.0000 C   0  0  0  0  0  0  0  0  0  0  0  0
   13.8649   -4.3695    0.0000 C   0  0  0  0  0  0  0  0  0  0  0  0
   14.5768   -3.9636    0.0000 C   0  0  0  0  0  0  0  0  0  0  0  0
   14.5813   -3.1425    0.0000 C   0  0  0  0  0  0  0  0  0  0  0  0
   13.8681   -2.7290    0.0000 C   0  0  0  0  0  0  0  0  0  0  0  0
   13.1591   -3.1373    0.0000 C   0  0  0  0  0  0  0  0  0  0  0  0
    1.1431   -4.3770    0.0000 O   0  0  0  0  0  0  0  0  0  0  0  0
   15.2905   -2.7365    0.0000 O   0  0  0  0  0  0  0  0  0  0  0  0
    0.4324   -3.9736    0.0000 C   0  0  0  0  0  0  0  0  0  0  0  0
   15.2935   -1.9194    0.0000 C   0  0  0  0  0  0  0  0  0  0  0  0
    2.5706   -5.1843    0.0000 O   0  0  0  0  0  0  0  0  0  0  0  0
    1.8669   -5.5997    0.0000 C   0  0  0  0  0  0  0  0  0  0  0  0
   15.2822   -4.3761    0.0000 O   0  0  0  0  0  0  0  0  0  0  0  0
   15.2778   -5.1933    0.0000 C   0  0  0  0  0  0  0  0  0  0  0  0
  2  1  2  0
  3  2  2  0
  5  4  2  0
  6  5  2  0
  7  8  1  0
  7 12  1  0
  8  9  1  0
  9 10  1  0
 10 11  1  0
 11 12  1  0
 10 13  1  0
 13 14  2  0
 13 15  1  0
 15 16  1  0
 16 17  1  0
  7 18  1  0
 18 19  2  0
 18 20  1  0
 20 21  1  0
 21 22  1  0
 22  5  1  0
 17  2  1  0
  5 23  1  0
  2 24  1  0
 23 25  2  0
 25 26  1  0
 26 27  2  0
 27 28  1  0
 28 29  2  0
 29 23  1  0
 24 30  2  0
 30 31  1  0
 31 32  2  0
 32 33  1  0
 33 34  2  0
 34 24  1  0
 27 35  1  0
 32 36  1  0
 35 37  1  0
 36 38  1  0
 28 39  1  0
 39 40  1  0
 31 41  1  0
 41 42  1  0
M  END
> <chembl_id>
CHEMBL4075810

> <chembl_pref_name>
None

$$$$
CHEMBL3085396
     RDKit          2D

 41 44  0  0  0  0  0  0  0  0999 V2000
    3.9583  -10.3958    0.0000 Na  0  0  0  0  0 15  0  0  0  0  0  0
   -2.9708  -13.8625    0.0000 C   0  0  0  0  0  0  0  0  0  0  0  0
   -2.1458  -13.8625    0.0000 C   0  0  0  0  0  0  0  0  0  0  0  0
   -1.3208  -13.8625    0.0000 C   0  0  0  0  0  0  0  0  0  0  0  0
   -2.1458  -13.0375    0.0000 C   0  0  0  0  0  0  0  0  0  0  0  0
   -2.1458  -14.6875    0.0000 O   0  0  0  0  0  0  0  0  0  0  0  0
   -0.9102  -14.5793    0.0000 C   0  0  0  0  0  0  0  0  0  0  0  0
   -0.0860  -14.5796    0.0000 C   0  0  0  0  0  0  0  0  0  0  0  0
    0.3274  -13.8646    0.0000 C   0  0  0  0  0  0  0  0  0  0  0  0
   -0.0896  -13.1478    0.0000 C   0  0  0  0  0  0  0  0  0  0  0  0
   -0.9124  -13.1510    0.0000 C   0  0  0  0  0  0  0  0  0  0  0  0
   -1.4290  -12.6269    0.0000 C   0  0  0  0  0  0  0  0  0  0  0  0
   -1.4287  -11.8026    0.0000 C   0  0  0  0  0  0  0  0  0  0  0  0
   -2.1437  -11.3893    0.0000 C   0  0  0  0  0  0  0  0  0  0  0  0
   -2.8605  -11.8062    0.0000 C   0  0  0  0  0  0  0  0  0  0  0  0
   -2.8574  -12.6291    0.0000 C   0  0  0  0  0  0  0  0  0  0  0  0
   -3.3815  -13.1457    0.0000 C   0  0  0  0  0  0  0  0  0  0  0  0
   -4.2057  -13.1454    0.0000 C   0  0  0  0  0  0  0  0  0  0  0  0
   -4.6190  -13.8604    0.0000 C   0  0  0  0  0  0  0  0  0  0  0  0
   -4.2021  -14.5772    0.0000 C   0  0  0  0  0  0  0  0  0  0  0  0
   -3.3792  -14.5740    0.0000 C   0  0  0  0  0  0  0  0  0  0  0  0
   -4.6178  -12.4307    0.0000 C   0  0  0  0  0  0  0  0  0  0  0  0
   -5.4440  -13.8615    0.0000 N   0  0  0  0  0  0  0  0  0  0  0  0
   -2.1448  -10.5643    0.0000 N   0  0  0  0  0  0  0  0  0  0  0  0
   -1.4309  -10.1509    0.0000 C   0  0  0  0  0  0  0  0  0  0  0  0
    1.1524  -13.8635    0.0000 N   0  0  0  0  0  0  0  0  0  0  0  0
    1.5639  -13.1485    0.0000 C   0  0  0  0  0  0  0  0  0  0  0  0
    2.3873  -13.1516    0.0000 C   0  0  0  0  0  0  0  0  0  0  0  0
    2.7988  -12.4374    0.0000 C   0  0  0  0  0  0  0  0  0  0  0  0
    2.3853  -11.7225    0.0000 C   0  0  0  0  0  0  0  0  0  0  0  0
    1.5560  -11.7263    0.0000 C   0  0  0  0  0  0  0  0  0  0  0  0
    1.1483  -12.4410    0.0000 C   0  0  0  0  0  0  0  0  0  0  0  0
   -0.7183  -10.5671    0.0000 C   0  0  0  0  0  0  0  0  0  0  0  0
   -0.0048  -10.1543    0.0000 C   0  0  0  0  0  0  0  0  0  0  0  0
   -0.0055   -9.3284    0.0000 C   0  0  0  0  0  0  0  0  0  0  0  0
   -0.7255   -8.9170    0.0000 C   0  0  0  0  0  0  0  0  0  0  0  0
   -1.4360   -9.3322    0.0000 C   0  0  0  0  0  0  0  0  0  0  0  0
    2.7959  -11.0070    0.0000 S   0  0  0  0  0  0  0  0  0  0  0  0
    3.2042  -10.2875    0.0000 O   0  0  0  0  0  0  0  0  0  0  0  0
    3.5124  -11.4159    0.0000 O   0  0  0  0  0  0  0  0  0  0  0  0
    2.0782  -10.6000    0.0000 O   0  0  0  0  0  0  0  0  0  0  0  0
  2  3  1  0
 20 21  2  0
 21  2  1  0
 10 11  2  0
 18 22  1  0
 11  4  1  0
 19 23  1  0
  3  6  1  6
 14 24  1  0
  5 12  2  0
 24 25  1  0
  9 26  1  0
 12 13  1  0
 26 27  1  0
  4  7  2  0
 27 28  2  0
 13 14  2  0
 28 29  1  0
  3  4  1  0
 29 30  2  0
 14 15  1  0
 30 31  1  0
  7  8  1  0
 31 32  2  0
 32 27  1  0
 15 16  2  0
 25 33  2  0
 16  5  1  0
 33 34  1  0
 34 35  2  0
  2 17  2  0
 35 36  1  0
  8  9  2  0
 36 37  2  0
 37 25  1  0
 17 18  1  0
 30 38  1  0
  3  5  1  0
 38 39  1  0
 18 19  2  0
 38 40  2  0
  9 10  1  0
 38 41  2  0
 19 20  1  0
M  CHG  2   1   1  39  -1
M  END
> <chembl_id>
CHEMBL3085396

> <chembl_pref_name>
None

$$$$
CHEMBL3114567
     RDKit          2D

 31 33  0  0  0  0  0  0  0  0999 V2000
   15.6623   -2.6073    0.0000 N   0  0  0  0  0  0  0  0  0  0  0  0
   15.6198   -1.2845    0.0000 N   0  0  0  0  0  0  0  0  0  0  0  0
   15.1636   -1.9614    0.0000 C   0  0  0  0  0  0  0  0  0  0  0  0
   17.8392   -1.1428    0.0000 N   0  0  0  0  0  0  0  0  0  0  0  0
   18.2104   -1.8696    0.0000 C   0  0  0  0  0  0  0  0  0  0  0  0
   17.8776   -2.6150    0.0000 N   0  0  0  0  0  0  0  0  0  0  0  0
   17.0901   -2.8212    0.0000 C   0  0  0  0  0  0  0  0  0  0  0  0
   17.0312   -0.9831    0.0000 C   0  0  0  0  0  0  0  0  0  0  0  0
   16.4312   -2.3297    0.0000 C   0  0  0  0  0  0  0  0  0  0  0  0
   16.4070   -1.5133    0.0000 C   0  0  0  0  0  0  0  0  0  0  0  0
   16.8254   -0.1923    0.0000 O   0  0  0  0  0  0  0  0  0  0  0  0
   19.0273   -1.8482    0.0000 N   0  0  0  0  0  0  0  0  0  0  0  0
   16.9339   -3.6233    0.0000 O   0  0  0  0  0  0  0  0  0  0  0  0
   19.4543   -2.5450    0.0000 C   0  0  0  0  0  0  0  0  0  0  0  0
   20.2712   -2.5236    0.0000 C   0  0  0  0  0  0  0  0  0  0  0  0
   20.6982   -3.2204    0.0000 C   0  0  0  0  0  0  0  0  0  0  0  0
   21.5151   -3.1990    0.0000 C   0  0  0  0  0  0  0  0  0  0  0  0
   21.9420   -3.8958    0.0000 C   0  0  0  0  0  0  0  0  0  0  0  0
   22.7590   -3.8744    0.0000 C   0  0  0  0  0  0  0  0  0  0  0  0
   23.1859   -4.5712    0.0000 C   0  0  0  0  0  0  0  0  0  0  0  0
   24.0028   -4.5498    0.0000 C   0  0  0  0  0  0  0  0  0  0  0  0
   15.3600   -3.3670    0.0000 C   0  0  0  0  0  0  0  0  0  0  0  0
   14.5702   -3.5677    0.0000 O   0  0  0  0  0  0  0  0  0  0  0  0
   14.5176   -4.3832    0.0000 C   0  0  0  0  0  0  0  0  0  0  0  0
   15.2770   -4.6852    0.0000 C   0  0  0  0  0  0  0  0  0  0  0  0
   15.7988   -4.0563    0.0000 C   0  0  0  0  0  0  0  0  0  0  0  0
   13.8270   -4.8200    0.0000 C   0  0  0  0  0  0  0  0  0  0  0  0
   13.1034   -4.4403    0.0000 O   0  0  0  0  0  0  0  0  0  0  0  0
   15.4791   -5.4770    0.0000 O   0  0  0  0  0  0  0  0  0  0  0  0
   24.4298   -5.2466    0.0000 C   0  0  0  0  0  0  0  0  0  0  0  0
   25.2467   -5.2252    0.0000 C   0  0  0  0  0  0  0  0  0  0  0  0
  1  9  1  0
 10  2  1  0
  2  3  2  0
  3  1  1  0
  4  5  2  0
  5  6  1  0
  6  7  1  0
  4  8  1  0
  7  9  1  0
  8 10  1  0
  9 10  2  0
  8 11  2  0
  5 12  1  0
  7 13  2  0
 12 14  1  0
 14 15  1  0
 15 16  1  0
 16 17  1  0
 17 18  1  0
 18 19  1  0
 19 20  1  0
 20 21  1  0
 22  1  1  6
 22 23  1  0
 23 24  1  0
 24 25  1  0
 25 26  1  0
 26 22  1  0
 24 27  1  1
 27 28  1  0
 25 29  1  6
 21 30  1  0
 30 31  1  0
M  END
> <chembl_id>
CHEMBL3114567

> <chembl_pref_name>
None

$$$$
CHEMBL1813564
     RDKit          2D

 64 69  0  0  0  0  0  0  0  0999 V2000
    9.8258   -7.0025    0.0000 O   0  0  0  0  0  0  0  0  0  0  0  0
    9.0212   -6.7909    0.0000 S   0  0  0  0  0  0  0  0  0  0  0  0
    9.2350   -7.5906    0.0000 O   0  0  0  0  0  0  0  0  0  0  0  0
    5.7763   -3.6396    0.0000 O   0  0  0  0  0  0  0  0  0  0  0  0
    5.0646   -3.2242    0.0000 C   0  0  0  0  0  0  0  0  0  0  0  0
    3.6430   -2.3911    0.0000 N   0  0  0  0  0  0  0  0  0  0  0  0
    3.6456   -3.2208    0.0000 C   0  0  0  0  0  0  0  0  0  0  0  0
    4.3563   -3.6311    0.0000 C   0  0  0  0  0  0  0  0  0  0  0  0
    4.3596   -1.9808    0.0000 C   0  0  0  0  0  0  0  0  0  0  0  0
    5.0693   -2.3951    0.0000 C   0  0  0  0  0  0  0  0  0  0  0  0
    5.7777   -1.9883    0.0000 C   0  0  0  0  0  0  0  0  0  0  0  0
    5.7831   -1.1687    0.0000 C   0  0  0  0  0  0  0  0  0  0  0  0
    5.0674   -0.7568    0.0000 C   0  0  0  0  0  0  0  0  0  0  0  0
    4.3628   -1.1656    0.0000 C   0  0  0  0  0  0  0  0  0  0  0  0
    5.0650    0.0674    0.0000 O   0  0  0  0  0  0  0  0  0  0  0  0
    5.7812    0.4794    0.0000 C   0  0  0  0  0  0  0  0  0  0  0  0
    2.9273   -3.6308    0.0000 C   0  0  0  0  0  0  0  0  0  0  0  0
    2.2148   -3.2153    0.0000 C   0  0  0  0  0  0  0  0  0  0  0  0
    1.5019   -3.6302    0.0000 C   0  0  0  0  0  0  0  0  0  0  0  0
    1.5009   -4.4543    0.0000 C   0  0  0  0  0  0  0  0  0  0  0  0
    2.2203   -4.8639    0.0000 C   0  0  0  0  0  0  0  0  0  0  0  0
    2.9327   -4.4522    0.0000 C   0  0  0  0  0  0  0  0  0  0  0  0
    5.7733   -4.4639    0.0000 C   0  0  0  0  0  0  0  0  0  0  0  0
    5.0541   -4.8691    0.0000 C   0  0  0  0  0  0  0  0  0  0  0  0
    5.0502   -5.6916    0.0000 C   0  0  0  0  0  0  0  0  0  0  0  0
    5.7606   -6.1053    0.0000 C   0  0  0  0  0  0  0  0  0  0  0  0
    6.4785   -5.6931    0.0000 C   0  0  0  0  0  0  0  0  0  0  0  0
    6.4806   -4.8696    0.0000 C   0  0  0  0  0  0  0  0  0  0  0  0
    5.7579   -6.9295    0.0000 C   0  0  0  0  0  0  0  0  0  0  0  0
    4.3300   -6.9240    0.0000 C   0  0  0  0  0  0  0  0  0  0  0  0
    3.6190   -7.3322    0.0000 C   0  0  0  0  0  0  0  0  0  0  0  0
    4.3327   -6.1040    0.0000 O   0  0  0  0  0  0  0  0  0  0  0  0
    3.6120   -8.1565    0.0000 C   0  0  0  0  0  0  0  0  0  0  0  0
    2.8988   -8.5712    0.0000 C   0  0  0  0  0  0  0  0  0  0  0  0
    4.3268   -8.5725    0.0000 C   0  0  0  0  0  0  0  0  0  0  0  0
    3.6062   -8.9832    0.0000 C   0  0  0  0  0  0  0  0  0  0  0  0
    6.4684   -7.3457    0.0000 C   0  0  0  0  0  0  0  0  0  0  0  0
    7.1859   -6.9351    0.0000 O   0  0  0  0  0  0  0  0  0  0  0  0
    7.1785   -8.5860    0.0000 C   0  0  0  0  0  0  0  0  0  0  0  0
    7.1757   -9.4102    0.0000 C   0  0  0  0  0  0  0  0  0  0  0  0
    7.8960   -8.1712    0.0000 C   0  0  0  0  0  0  0  0  0  0  0  0
    7.8928   -9.8262    0.0000 C   0  0  0  0  0  0  0  0  0  0  0  0
    7.8858  -10.6505    0.0000 C   0  0  0  0  0  0  0  0  0  0  0  0
    8.6064   -8.5872    0.0000 O   0  0  0  0  0  0  0  0  0  0  0  0
    6.9567   -4.2048    0.0000 C   0  0  0  0  0  0  0  0  0  0  0  0
    7.7891   -4.2002    0.0000 C   0  0  0  0  0  0  0  0  0  0  0  0
    8.2096   -4.9184    0.0000 C   0  0  0  0  0  0  0  0  0  0  0  0
    9.0383   -4.9139    0.0000 C   0  0  0  0  0  0  0  0  0  0  0  0
    9.4554   -5.6355    0.0000 C   0  0  0  0  0  0  0  0  0  0  0  0
   10.2873   -5.6356    0.0000 C   0  0  0  0  0  0  0  0  0  0  0  0
   10.7011   -4.9119    0.0000 C   0  0  0  0  0  0  0  0  0  0  0  0
   10.2779   -4.1901    0.0000 C   0  0  0  0  0  0  0  0  0  0  0  0
    9.4482   -4.1954    0.0000 C   0  0  0  0  0  0  0  0  0  0  0  0
    2.1825   -7.3411    0.0000 C   0  0  0  0  0  0  0  0  0  0  0  0
    2.1838   -8.1722    0.0000 O   0  0  0  0  0  0  0  0  0  0  0  0
    1.4549   -6.9258    0.0000 O   0  0  0  0  0  0  0  0  0  0  0  0
    0.7316   -7.3380    0.0000 C   0  0  0  0  0  0  0  0  0  0  0  0
    0.0113   -6.9260    0.0000 C   0  0  0  0  0  0  0  0  0  0  0  0
    0.7317   -8.1679    0.0000 C   0  0  0  0  0  0  0  0  0  0  0  0
    0.0158   -7.7628    0.0000 C   0  0  0  0  0  0  0  0  0  0  0  0
    5.0469   -7.3378    0.0000 N   0  0  0  0  0  0  0  0  0  0  0  0
    2.9019   -6.9227    0.0000 N   0  0  0  0  0  0  0  0  0  0  0  0
    6.4679   -8.1699    0.0000 N   0  0  0  0  0  0  0  0  0  0  0  0
    7.8877   -7.0743    0.0000 N   0  0  0  0  0  0  0  0  0  0  0  0
  5 10  2  0
  9  6  2  0
  6  7  1  0
  7  8  2  0
  8  5  1  0
  9 10  1  0
 10 11  1  0
 11 12  2  0
 12 13  1  0
 13 14  2  0
 14  9  1  0
 13 15  1  0
 15 16  1  0
  7 17  1  0
 17 18  2  0
 18 19  1  0
 19 20  2  0
 20 21  1  0
 21 22  2  0
 22 17  1  0
  4 23  1  0
 23 24  2  0
 24 25  1  0
 25 26  2  0
 26 27  1  0
 27 28  2  0
 28 23  1  0
 29 26  1  0
 29 61  1  1
 61 30  1  0
 30 31  1  0
 30 32  2  0
 31 62  1  0
 31 33  1  6
 33 34  1  0
 33 35  1  0
 33 36  1  0
 29 37  1  0
 37 63  1  0
 37 38  2  0
 63 39  1  0
 39 40  1  6
 39 41  1  0
 40 42  1  0
 42 43  1  0
 41 44  2  0
 41 64  1  0
 64  2  1  0
 28 45  1  0
 45 46  1  0
 46 47  1  0
 47 48  1  0
 49 50  1  0
 50 51  2  0
 51 52  1  0
 52 53  2  0
 53 48  1  0
  2 49  1  0
 49 48  2  0
 62 54  1  0
 54 55  2  0
 54 56  1  0
 56 57  1  0
 57 58  1  0
 57 59  1  0
 57 60  1  0
  2  1  2  0
  3  2  2  0
  4  5  1  0
M  END
> <chembl_id>
CHEMBL1813564

> <chembl_pref_name>
None

$$$$
CHEMBL1771793
     RDKit          2D

 23 25  0  0  0  0  0  0  0  0999 V2000
    9.8646    0.2375    0.0000 C   0  0  0  0  0  0  0  0  0  0  0  0
    9.8635   -0.5898    0.0000 C   0  0  0  0  0  0  0  0  0  0  0  0
   10.5783   -1.0026    0.0000 C   0  0  0  0  0  0  0  0  0  0  0  0
   10.5765    0.6503    0.0000 C   0  0  0  0  0  0  0  0  0  0  0  0
   11.2918    0.2412    0.0000 C   0  0  0  0  0  0  0  0  0  0  0  0
   11.2906   -0.5919    0.0000 C   0  0  0  0  0  0  0  0  0  0  0  0
   12.0075   -1.0071    0.0000 N   0  0  0  0  0  0  0  0  0  0  0  0
   12.7300   -0.5940    0.0000 C   0  0  0  0  0  0  0  0  0  0  0  0
   12.7312    0.2391    0.0000 C   0  0  0  0  0  0  0  0  0  0  0  0
   12.0099    0.6590    0.0000 C   0  0  0  0  0  0  0  0  0  0  0  0
   13.4433   -1.0084    0.0000 C   0  0  0  0  0  0  0  0  0  0  0  0
    9.1487   -1.0017    0.0000 O   0  0  0  0  0  0  0  0  0  0  0  0
    8.4346   -0.5887    0.0000 C   0  0  0  0  0  0  0  0  0  0  0  0
    7.7198   -1.0005    0.0000 C   0  0  0  0  0  0  0  0  0  0  0  0
   12.0099    1.4839    0.0000 N   0  0  0  0  0  0  0  0  0  0  0  0
   12.7243    1.8963    0.0000 N   0  0  0  0  0  0  0  0  0  0  0  0
   13.4387    1.4838    0.0000 C   0  0  0  0  0  0  0  0  0  0  0  0
   14.1531    1.8963    0.0000 C   0  0  0  0  0  0  0  0  0  0  0  0
   13.4387    0.6589    0.0000 O   0  0  0  0  0  0  0  0  0  0  0  0
   14.9024    1.5620    0.0000 O   0  0  0  0  0  0  0  0  0  0  0  0
   15.4545    2.1750    0.0000 C   0  0  0  0  0  0  0  0  0  0  0  0
   15.0420    2.8895    0.0000 C   0  0  0  0  0  0  0  0  0  0  0  0
   14.2351    2.7179    0.0000 C   0  0  0  0  0  0  0  0  0  0  0  0
  8 11  1  0
  2 12  1  0
  2  3  1  0
 12 13  1  0
  3  6  2  0
 13 14  1  0
  1  2  2  0
 10 15  1  0
  5  4  2  0
 15 16  1  0
  4  1  1  0
 16 17  1  0
  5 10  1  0
 17 18  1  0
  6  7  1  0
 17 19  2  0
 18 20  1  0
  7  8  2  0
  8  9  1  0
  9 10  2  0
  5  6  1  0
 20 21  1  0
 21 22  2  0
 22 23  1  0
 23 18  2  0
M  END
> <chembl_id>
CHEMBL1771793

> <chembl_pref_name>
None

$$$$
CHEMBL4091436
     RDKit          2D

 34 36  0  0  0  0  0  0  0  0999 V2000
   20.5495  -18.7046    0.0000 O   0  0  0  0  0  0  0  0  0  0  0  0
   20.9622  -19.4145    0.0000 S   0  0  0  0  0  0  0  0  0  0  0  0
   21.3706  -18.7021    0.0000 O   0  0  0  0  0  0  0  0  0  0  0  0
   29.8522  -21.7505    0.0000 O   0  0  0  0  0  0  0  0  0  0  0  0
   29.4478  -21.0447    0.0000 S   0  0  0  0  0  0  0  0  0  0  0  0
   29.0388  -21.7479    0.0000 O   0  0  0  0  0  0  0  0  0  0  0  0
   24.5034  -19.8148    0.0000 N   0  0  0  0  0  0  0  0  0  0  0  0
   24.5034  -20.6320    0.0000 C   0  0  0  0  0  0  0  0  0  0  0  0
   25.2086  -21.0365    0.0000 C   0  0  0  0  0  0  0  0  0  0  0  0
   25.9139  -20.6320    0.0000 N   0  0  0  0  0  0  0  0  0  0  0  0
   25.9139  -19.8148    0.0000 C   0  0  0  0  0  0  0  0  0  0  0  0
   25.2086  -19.4021    0.0000 C   0  0  0  0  0  0  0  0  0  0  0  0
   26.6210  -21.0416    0.0000 C   0  0  0  0  0  0  0  0  0  0  0  0
   27.3293  -20.6341    0.0000 C   0  0  0  0  0  0  0  0  0  0  0  0
   28.0364  -21.0437    0.0000 C   0  0  0  0  0  0  0  0  0  0  0  0
   28.7447  -20.6361    0.0000 N   0  0  0  0  0  0  0  0  0  0  0  0
   30.1602  -20.6382    0.0000 C   0  0  0  0  0  0  0  0  0  0  0  0
   23.7945  -19.4083    0.0000 C   0  0  0  0  0  0  0  0  0  0  0  0
   23.0879  -19.8190    0.0000 C   0  0  0  0  0  0  0  0  0  0  0  0
   22.3790  -19.4125    0.0000 C   0  0  0  0  0  0  0  0  0  0  0  0
   21.6725  -19.8231    0.0000 N   0  0  0  0  0  0  0  0  0  0  0  0
   20.2571  -19.8273    0.0000 C   0  0  0  0  0  0  0  0  0  0  0  0
   19.5491  -19.4173    0.0000 C   0  0  0  0  0  0  0  0  0  0  0  0
   18.8430  -19.8272    0.0000 C   0  0  0  0  0  0  0  0  0  0  0  0
   18.8450  -20.6453    0.0000 C   0  0  0  0  0  0  0  0  0  0  0  0
   19.5589  -21.0517    0.0000 C   0  0  0  0  0  0  0  0  0  0  0  0
   20.2620  -20.6393    0.0000 C   0  0  0  0  0  0  0  0  0  0  0  0
   30.8638  -21.0519    0.0000 C   0  0  0  0  0  0  0  0  0  0  0  0
   31.5716  -20.6450    0.0000 C   0  0  0  0  0  0  0  0  0  0  0  0
   31.5733  -19.8269    0.0000 C   0  0  0  0  0  0  0  0  0  0  0  0
   30.8612  -19.4174    0.0000 C   0  0  0  0  0  0  0  0  0  0  0  0
   30.1563  -19.8267    0.0000 C   0  0  0  0  0  0  0  0  0  0  0  0
   18.1390  -21.0569    0.0000 Cl  0  0  0  0  0  0  0  0  0  0  0  0
   32.2810  -19.4184    0.0000 C   0  0  0  0  0  0  0  0  0  0  0  0
  2  1  2  0
  3  2  2  0
  5  4  2  0
  6  5  2  0
  7  8  1  0
  7 12  1  0
  8  9  1  0
  9 10  1  0
 10 11  1  0
 11 12  1  0
 10 13  1  0
 13 14  1  0
 14 15  1  0
 15 16  1  0
 16  5  1  0
  5 17  1  0
  7 18  1  0
 18 19  1  0
 19 20  1  0
 20 21  1  0
 21  2  1  0
  2 22  1  0
 22 23  2  0
 23 24  1  0
 24 25  2  0
 25 26  1  0
 26 27  2  0
 27 22  1  0
 17 28  2  0
 28 29  1  0
 29 30  2  0
 30 31  1  0
 31 32  2  0
 32 17  1  0
 25 33  1  0
 30 34  1  0
M  END
> <chembl_id>
CHEMBL4091436

> <chembl_pref_name>
None

$$$$
CHEMBL4073174
     RDKit          2D

 42 44  0  0  0  0  0  0  0  0999 V2000
    6.1331   -4.5688    0.0000 O   0  0  0  0  0  0  0  0  0  0  0  0
    5.7286   -3.8631    0.0000 S   0  0  0  0  0  0  0  0  0  0  0  0
    5.3196   -4.5662    0.0000 O   0  0  0  0  0  0  0  0  0  0  0  0
   13.8056   -1.5229    0.0000 O   0  0  0  0  0  0  0  0  0  0  0  0
   14.2183   -2.2328    0.0000 S   0  0  0  0  0  0  0  0  0  0  0  0
   14.6267   -1.5205    0.0000 O   0  0  0  0  0  0  0  0  0  0  0  0
    9.2698   -2.6332    0.0000 C   0  0  0  0  0  0  0  0  0  0  0  0
    9.2698   -3.4504    0.0000 N   0  0  0  0  0  0  0  0  0  0  0  0
    9.9750   -3.8548    0.0000 C   0  0  0  0  0  0  0  0  0  0  0  0
   10.6803   -3.4504    0.0000 C   0  0  0  0  0  0  0  0  0  0  0  0
   10.6803   -2.6332    0.0000 N   0  0  0  0  0  0  0  0  0  0  0  0
    9.9750   -2.2204    0.0000 C   0  0  0  0  0  0  0  0  0  0  0  0
   11.3892   -2.2267    0.0000 C   0  0  0  0  0  0  0  0  0  0  0  0
   12.0957   -2.6373    0.0000 C   0  0  0  0  0  0  0  0  0  0  0  0
   12.8046   -2.2308    0.0000 C   0  0  0  0  0  0  0  0  0  0  0  0
   13.5111   -2.6415    0.0000 N   0  0  0  0  0  0  0  0  0  0  0  0
   14.9265   -2.6456    0.0000 C   0  0  0  0  0  0  0  0  0  0  0  0
   14.9189   -3.4638    0.0000 C   0  0  0  0  0  0  0  0  0  0  0  0
   15.6246   -3.8744    0.0000 C   0  0  0  0  0  0  0  0  0  0  0  0
   16.3345   -3.4678    0.0000 C   0  0  0  0  0  0  0  0  0  0  0  0
   16.3342   -2.6464    0.0000 C   0  0  0  0  0  0  0  0  0  0  0  0
   15.6280   -2.2395    0.0000 C   0  0  0  0  0  0  0  0  0  0  0  0
    8.5626   -3.8600    0.0000 C   0  0  0  0  0  0  0  0  0  0  0  0
    7.8543   -3.4524    0.0000 C   0  0  0  0  0  0  0  0  0  0  0  0
    7.1472   -3.8620    0.0000 C   0  0  0  0  0  0  0  0  0  0  0  0
    6.4389   -3.4545    0.0000 N   0  0  0  0  0  0  0  0  0  0  0  0
    5.0235   -3.4565    0.0000 C   0  0  0  0  0  0  0  0  0  0  0  0
    5.0216   -2.6403    0.0000 C   0  0  0  0  0  0  0  0  0  0  0  0
    4.3142   -2.2328    0.0000 C   0  0  0  0  0  0  0  0  0  0  0  0
    3.6083   -2.6425    0.0000 C   0  0  0  0  0  0  0  0  0  0  0  0
    3.6128   -3.4639    0.0000 C   0  0  0  0  0  0  0  0  0  0  0  0
    4.3179   -3.8677    0.0000 C   0  0  0  0  0  0  0  0  0  0  0  0
   17.0415   -3.8775    0.0000 C   0  0  0  0  0  0  0  0  0  0  0  0
   17.0402   -4.6947    0.0000 O   0  0  0  0  0  0  0  0  0  0  0  0
   17.7499   -3.4701    0.0000 O   0  0  0  0  0  0  0  0  0  0  0  0
   17.7473   -5.1045    0.0000 C   0  0  0  0  0  0  0  0  0  0  0  0
   17.7460   -5.9216    0.0000 C   0  0  0  0  0  0  0  0  0  0  0  0
    2.8991   -2.2366    0.0000 C   0  0  0  0  0  0  0  0  0  0  0  0
    2.8959   -1.4194    0.0000 O   0  0  0  0  0  0  0  0  0  0  0  0
    2.1929   -2.6479    0.0000 O   0  0  0  0  0  0  0  0  0  0  0  0
    1.4880   -2.2421    0.0000 C   0  0  0  0  0  0  0  0  0  0  0  0
    0.7807   -2.6515    0.0000 C   0  0  0  0  0  0  0  0  0  0  0  0
  2  1  2  0
  3  2  2  0
  5  4  2  0
  6  5  2  0
  7  8  1  0
  7 12  1  0
  8  9  1  0
  9 10  1  0
 10 11  1  0
 11 12  1  0
 11 13  1  0
 13 14  1  0
 14 15  1  0
 15 16  1  0
 16  5  1  0
  5 17  1  0
 17 18  2  0
 18 19  1  0
 19 20  2  0
 20 21  1  0
 21 22  2  0
 22 17  1  0
  8 23  1  0
 23 24  1  0
 24 25  1  0
 25 26  1  0
 26  2  1  0
  2 27  1  0
 27 28  2  0
 28 29  1  0
 29 30  2  0
 30 31  1  0
 31 32  2  0
 32 27  1  0
 20 33  1  0
 33 34  1  0
 33 35  2  0
 34 36  1  0
 36 37  1  0
 30 38  1  0
 38 39  2  0
 38 40  1  0
 40 41  1  0
 41 42  1  0
M  END
> <chembl_id>
CHEMBL4073174

> <chembl_pref_name>
None

$$$$
CHEMBL3114566
     RDKit          2D

 29 31  0  0  0  0  0  0  0  0999 V2000
    3.7511   -3.3502    0.0000 N   0  0  0  0  0  0  0  0  0  0  0  0
    3.7086   -2.0274    0.0000 N   0  0  0  0  0  0  0  0  0  0  0  0
    3.2524   -2.7043    0.0000 C   0  0  0  0  0  0  0  0  0  0  0  0
    5.9280   -1.8857    0.0000 N   0  0  0  0  0  0  0  0  0  0  0  0
    6.2992   -2.6125    0.0000 C   0  0  0  0  0  0  0  0  0  0  0  0
    5.9664   -3.3579    0.0000 N   0  0  0  0  0  0  0  0  0  0  0  0
    5.1789   -3.5641    0.0000 C   0  0  0  0  0  0  0  0  0  0  0  0
    5.1200   -1.7260    0.0000 C   0  0  0  0  0  0  0  0  0  0  0  0
    4.5200   -3.0726    0.0000 C   0  0  0  0  0  0  0  0  0  0  0  0
    4.4958   -2.2562    0.0000 C   0  0  0  0  0  0  0  0  0  0  0  0
    4.9143   -0.9352    0.0000 O   0  0  0  0  0  0  0  0  0  0  0  0
    7.1161   -2.5911    0.0000 N   0  0  0  0  0  0  0  0  0  0  0  0
    5.0227   -4.3662    0.0000 O   0  0  0  0  0  0  0  0  0  0  0  0
    7.5431   -3.2879    0.0000 C   0  0  0  0  0  0  0  0  0  0  0  0
    8.3600   -3.2665    0.0000 C   0  0  0  0  0  0  0  0  0  0  0  0
    8.7870   -3.9633    0.0000 C   0  0  0  0  0  0  0  0  0  0  0  0
    9.6039   -3.9419    0.0000 C   0  0  0  0  0  0  0  0  0  0  0  0
   10.0309   -4.6387    0.0000 C   0  0  0  0  0  0  0  0  0  0  0  0
   10.8478   -4.6173    0.0000 C   0  0  0  0  0  0  0  0  0  0  0  0
   11.2747   -5.3141    0.0000 C   0  0  0  0  0  0  0  0  0  0  0  0
   12.0916   -5.2927    0.0000 C   0  0  0  0  0  0  0  0  0  0  0  0
    3.4488   -4.1099    0.0000 C   0  0  0  0  0  0  0  0  0  0  0  0
    2.6590   -4.3106    0.0000 O   0  0  0  0  0  0  0  0  0  0  0  0
    2.6065   -5.1261    0.0000 C   0  0  0  0  0  0  0  0  0  0  0  0
    3.3659   -5.4281    0.0000 C   0  0  0  0  0  0  0  0  0  0  0  0
    3.8876   -4.7992    0.0000 C   0  0  0  0  0  0  0  0  0  0  0  0
    1.9158   -5.5629    0.0000 C   0  0  0  0  0  0  0  0  0  0  0  0
    1.1922   -5.1832    0.0000 O   0  0  0  0  0  0  0  0  0  0  0  0
    3.5679   -6.2199    0.0000 O   0  0  0  0  0  0  0  0  0  0  0  0
  1  9  1  0
 10  2  1  0
  2  3  2  0
  3  1  1  0
  4  5  2  0
  5  6  1  0
  6  7  1  0
  4  8  1  0
  7  9  1  0
  8 10  1  0
  9 10  2  0
  8 11  2  0
  5 12  1  0
  7 13  2  0
 12 14  1  0
 14 15  1  0
 15 16  1  0
 16 17  1  0
 17 18  1  0
 18 19  1  0
 19 20  1  0
 20 21  1  0
 22  1  1  6
 22 23  1  0
 23 24  1  0
 24 25  1  0
 25 26  1  0
 26 22  1  0
 24 27  1  1
 27 28  1  0
 25 29  1  6
M  END
> <chembl_id>
CHEMBL3114566

> <chembl_pref_name>
None

$$$$
CHEMBL4531456
     RDKit          2D

 26 29  0  0  0  0  0  0  0  0999 V2000
   31.2006  -16.7298    0.0000 S   0  0  0  0  0  0  0  0  0  0  0  0
   31.6995  -16.0824    0.0000 C   0  0  0  0  0  0  0  0  0  0  0  0
   31.2352  -15.4068    0.0000 N   0  0  0  0  0  0  0  0  0  0  0  0
   30.4302  -16.4573    0.0000 C   0  0  0  0  0  0  0  0  0  0  0  0
   30.4534  -15.6427    0.0000 C   0  0  0  0  0  0  0  0  0  0  0  0
   29.7606  -15.2171    0.0000 C   0  0  0  0  0  0  0  0  0  0  0  0
   29.0442  -15.6050    0.0000 C   0  0  0  0  0  0  0  0  0  0  0  0
   29.0248  -16.4228    0.0000 N   0  0  0  0  0  0  0  0  0  0  0  0
   29.7183  -16.8447    0.0000 C   0  0  0  0  0  0  0  0  0  0  0  0
   32.5132  -16.1061    0.0000 C   0  0  0  0  0  0  0  0  0  0  0  0
   32.9017  -16.8263    0.0000 C   0  0  0  0  0  0  0  0  0  0  0  0
   33.7178  -16.8489    0.0000 C   0  0  0  0  0  0  0  0  0  0  0  0
   34.1464  -16.1520    0.0000 C   0  0  0  0  0  0  0  0  0  0  0  0
   33.7529  -15.4310    0.0000 C   0  0  0  0  0  0  0  0  0  0  0  0
   32.9380  -15.4119    0.0000 C   0  0  0  0  0  0  0  0  0  0  0  0
   32.5469  -14.6944    0.0000 O   0  0  0  0  0  0  0  0  0  0  0  0
   32.9727  -13.9969    0.0000 C   0  0  0  0  0  0  0  0  0  0  0  0
   33.7891  -14.0200    0.0000 C   0  0  0  0  0  0  0  0  0  0  0  0
   34.2149  -13.3233    0.0000 C   0  0  0  0  0  0  0  0  0  0  0  0
   33.8237  -12.6048    0.0000 C   0  0  0  0  0  0  0  0  0  0  0  0
   33.0025  -12.5873    0.0000 C   0  0  0  0  0  0  0  0  0  0  0  0
   32.5804  -13.2847    0.0000 C   0  0  0  0  0  0  0  0  0  0  0  0
   34.2486  -11.9068    0.0000 N   0  0  0  0  0  0  0  0  0  0  0  0
   35.0656  -11.9257    0.0000 C   0  0  0  0  0  0  0  0  0  0  0  0
   35.4904  -11.2277    0.0000 O   0  0  0  0  0  0  0  0  0  0  0  0
   35.4576  -12.6427    0.0000 C   0  0  0  0  0  0  0  0  0  0  0  0
  4  1  1  0
  1  2  1  0
  2  3  2  0
  3  5  1  0
  4  5  2  0
  5  6  1  0
  6  7  2  0
  7  8  1  0
  8  9  2  0
  9  4  1  0
 10 11  2  0
 11 12  1  0
 12 13  2  0
 13 14  1  0
 14 15  2  0
 15 10  1  0
  2 10  1  0
 15 16  1  0
 16 17  1  0
 17 18  2  0
 18 19  1  0
 19 20  2  0
 20 21  1  0
 21 22  2  0
 22 17  1  0
 20 23  1  0
 23 24  1  0
 24 25  2  0
 24 26  1  0
M  END
> <chembl_id>
CHEMBL4531456

> <chembl_pref_name>
None

$$$$
CHEMBL4062449
     RDKit          2D

 27 30  0  0  0  0  0  0  0  0999 V2000
   10.8618   -6.5490    0.0000 C   0  0  0  0  0  0  0  0  0  0  0  0
   10.3793   -5.8904    0.0000 C   0  0  0  0  0  0  0  0  0  0  0  0
   10.6261   -5.1106    0.0000 C   0  0  0  0  0  0  0  0  0  0  0  0
    9.9622   -4.6372    0.0000 N   0  0  0  0  0  0  0  0  0  0  0  0
    9.3038   -5.1198    0.0000 C   0  0  0  0  0  0  0  0  0  0  0  0
    9.5622   -5.8945    0.0000 C   0  0  0  0  0  0  0  0  0  0  0  0
    8.5240   -4.8730    0.0000 C   0  0  0  0  0  0  0  0  0  0  0  0
    8.3493   -4.0764    0.0000 C   0  0  0  0  0  0  0  0  0  0  0  0
    7.5696   -3.8296    0.0000 C   0  0  0  0  0  0  0  0  0  0  0  0
    6.9645   -4.3794    0.0000 C   0  0  0  0  0  0  0  0  0  0  0  0
    7.1433   -5.1761    0.0000 C   0  0  0  0  0  0  0  0  0  0  0  0
    7.9190   -5.4270    0.0000 C   0  0  0  0  0  0  0  0  0  0  0  0
    9.9580   -3.8200    0.0000 C   0  0  0  0  0  0  0  0  0  0  0  0
   10.6588   -3.4084    0.0000 C   0  0  0  0  0  0  0  0  0  0  0  0
   10.6547   -2.5912    0.0000 C   0  0  0  0  0  0  0  0  0  0  0  0
    9.9456   -2.1857    0.0000 C   0  0  0  0  0  0  0  0  0  0  0  0
    9.2407   -2.5973    0.0000 C   0  0  0  0  0  0  0  0  0  0  0  0
    9.2448   -3.4144    0.0000 C   0  0  0  0  0  0  0  0  0  0  0  0
   11.3720   -3.8098    0.0000 Br  0  0  0  0  0  0  0  0  0  0  0  0
   11.4008   -4.8563    0.0000 O   0  0  0  0  0  0  0  0  0  0  0  0
   11.6784   -6.5190    0.0000 C   0  0  0  0  0  0  0  0  0  0  0  0
   12.1084   -7.2144    0.0000 C   0  0  0  0  0  0  0  0  0  0  0  0
   12.9243   -7.1848    0.0000 C   0  0  0  0  0  0  0  0  0  0  0  0
   13.3075   -6.4620    0.0000 C   0  0  0  0  0  0  0  0  0  0  0  0
   12.8687   -5.7676    0.0000 C   0  0  0  0  0  0  0  0  0  0  0  0
   12.0543   -5.8006    0.0000 C   0  0  0  0  0  0  0  0  0  0  0  0
    9.9420   -1.3685    0.0000 C   0  0  0  0  0  0  0  0  0  0  0  0
  1  2  2  0
  2  3  1  0
  3  4  1  0
  4  5  1  0
  5  6  2  0
  2  6  1  0
  5  7  1  0
  7  8  2  0
  8  9  1  0
  9 10  2  0
 10 11  1  0
 11 12  2  0
  7 12  1  0
  4 13  1  0
 13 14  2  0
 14 15  1  0
 15 16  2  0
 16 17  1  0
 17 18  2  0
 13 18  1  0
 14 19  1  0
  3 20  2  0
  1 21  1  0
 21 22  2  0
 22 23  1  0
 23 24  2  0
 24 25  1  0
 25 26  2  0
 26 21  1  0
 16 27  1  0
M  END
> <chembl_id>
CHEMBL4062449

> <chembl_pref_name>
None

$$$$
CHEMBL3938439
     RDKit          2D

 23 26  0  0  0  0  0  0  0  0999 V2000
   17.6817  -12.0040    0.0000 C   0  0  0  0  0  0  0  0  0  0  0  0
   16.9727  -11.5954    0.0000 C   0  0  0  0  0  0  0  0  0  0  0  0
   16.2636  -12.0040    0.0000 C   0  0  0  0  0  0  0  0  0  0  0  0
   15.5586  -11.5954    0.0000 C   0  0  0  0  0  0  0  0  0  0  0  0
   15.5586  -10.7783    0.0000 C   0  0  0  0  0  0  0  0  0  0  0  0
   16.2636  -10.3697    0.0000 C   0  0  0  0  0  0  0  0  0  0  0  0
   16.9727  -10.7783    0.0000 C   0  0  0  0  0  0  0  0  0  0  0  0
   18.3908  -11.5954    0.0000 O   0  0  0  0  0  0  0  0  0  0  0  0
   17.6817  -12.8212    0.0000 N   0  0  0  0  0  0  0  0  0  0  0  0
   16.9727  -13.2298    0.0000 N   0  0  0  0  0  0  0  0  0  0  0  0
   16.2636  -12.8212    0.0000 O   0  0  0  0  0  0  0  0  0  0  0  0
   17.6817  -15.2728    0.0000 C   0  0  0  0  0  0  0  0  0  0  0  0
   16.9727  -15.6814    0.0000 N   0  0  0  0  0  0  0  0  0  0  0  0
   16.2636  -15.2728    0.0000 C   0  0  0  0  0  0  0  0  0  0  0  0
   16.2636  -14.4556    0.0000 C   0  0  0  0  0  0  0  0  0  0  0  0
   16.9727  -14.0470    0.0000 C   0  0  0  0  0  0  0  0  0  0  0  0
   17.6817  -14.4556    0.0000 N   0  0  0  0  0  0  0  0  0  0  0  0
   15.4863  -14.2051    0.0000 C   0  0  0  0  0  0  0  0  0  0  0  0
   15.0103  -14.8642    0.0000 C   0  0  0  0  0  0  0  0  0  0  0  0
   15.4863  -15.5275    0.0000 S   0  0  0  0  0  0  0  0  0  0  0  0
   14.2290  -14.6137    0.0000 C   0  0  0  0  0  0  0  0  0  0  0  0
   14.2290  -13.7965    0.0000 C   0  0  0  0  0  0  0  0  0  0  0  0
   15.0103  -13.5418    0.0000 C   0  0  0  0  0  0  0  0  0  0  0  0
  1  2  1  0
  2  3  1  0
  3  4  2  0
  4  5  1  0
  5  6  2  0
  6  7  1  0
  2  7  2  0
  9 10  1  0
  1  8  2  0
  1  9  1  0
  3 11  1  0
 12 13  1  0
 13 14  2  0
 14 15  1  0
 15 16  2  0
 16 17  1  0
 12 17  2  0
 18 19  2  0
 19 20  1  0
 21 22  1  0
 22 23  1  0
 18 23  1  0
 19 21  1  0
 14 20  1  0
 15 18  1  0
 10 16  1  0
M  END
> <chembl_id>
CHEMBL3938439

> <chembl_pref_name>
None

$$$$
CHEMBL3961375
     RDKit          2D

 35 38  0  0  0  0  0  0  0  0999 V2000
   20.1802  -14.5561    0.0000 O   0  0  0  0  0  0  0  0  0  0  0  0
   20.1843  -13.7389    0.0000 S   0  0  0  0  0  0  0  0  0  0  0  0
   19.4746  -14.1439    0.0000 O   0  0  0  0  0  0  0  0  0  0  0  0
   19.9291  -12.9663    0.0000 N   0  0  0  0  0  0  0  0  0  0  0  0
   20.9009  -14.1427    0.0000 C   0  0  0  0  0  0  0  0  0  0  0  0
   21.6046  -13.7287    0.0000 C   0  0  0  0  0  0  0  0  0  0  0  0
   22.3205  -14.1322    0.0000 C   0  0  0  0  0  0  0  0  0  0  0  0
   22.3239  -14.9522    0.0000 C   0  0  0  0  0  0  0  0  0  0  0  0
   23.0398  -15.3558    0.0000 C   0  0  0  0  0  0  0  0  0  0  0  0
   21.6171  -15.3690    0.0000 C   0  0  0  0  0  0  0  0  0  0  0  0
   20.9042  -14.9627    0.0000 C   0  0  0  0  0  0  0  0  0  0  0  0
   19.1421  -12.7255    0.0000 C   0  0  0  0  0  0  0  0  0  0  0  0
   19.1315  -11.9043    0.0000 C   0  0  0  0  0  0  0  0  0  0  0  0
   19.9069  -11.6400    0.0000 C   0  0  0  0  0  0  0  0  0  0  0  0
   20.3981  -12.2962    0.0000 C   0  0  0  0  0  0  0  0  0  0  0  0
   18.4778  -11.3990    0.0000 C   0  0  0  0  0  0  0  0  0  0  0  0
   17.6920  -11.5999    0.0000 C   0  0  0  0  0  0  0  0  0  0  0  0
   17.3285  -12.3398    0.0000 C   0  0  0  0  0  0  0  0  0  0  0  0
   17.7053  -13.0735    0.0000 C   0  0  0  0  0  0  0  0  0  0  0  0
   18.5079  -13.2480    0.0000 C   0  0  0  0  0  0  0  0  0  0  0  0
   18.6482  -10.5964    0.0000 N   0  0  0  0  0  0  0  0  0  0  0  0
   19.1315  -11.0830    0.0000 H   0  0  0  0  0  0  0  0  0  0  0  0
   19.1421  -13.5468    0.0000 H   0  0  0  0  0  0  0  0  0  0  0  0
   21.2156  -12.2831    0.0000 C   0  0  0  0  0  0  0  0  0  0  0  0
   21.6128  -11.5690    0.0000 O   0  0  0  0  0  0  0  0  0  0  0  0
   21.6355  -12.9842    0.0000 O   0  0  0  0  0  0  0  0  0  0  0  0
   22.4299  -11.5559    0.0000 C   0  0  0  0  0  0  0  0  0  0  0  0
   22.8271  -10.8417    0.0000 C   0  0  0  0  0  0  0  0  0  0  0  0
   18.0408  -10.0497    0.0000 N   0  0  0  0  0  0  0  0  0  0  0  0
   18.2106   -9.2503    0.0000 C   0  0  0  0  0  0  0  0  0  0  0  0
   18.9888   -9.0015    0.0000 C   0  0  0  0  0  0  0  0  0  0  0  0
   19.1587   -8.2029    0.0000 C   0  0  0  0  0  0  0  0  0  0  0  0
   18.5510   -7.6553    0.0000 C   0  0  0  0  0  0  0  0  0  0  0  0
   17.7706   -7.9118    0.0000 C   0  0  0  0  0  0  0  0  0  0  0  0
   17.6044   -8.7098    0.0000 C   0  0  0  0  0  0  0  0  0  0  0  0
  2  1  2  0
  3  2  2  0
  2  5  1  0
  5  6  1  0
  6  7  2  0
  7  8  1  0
  8  9  1  0
  8 10  2  0
 10 11  1  0
  5 11  2  0
  4  2  1  0
  4 12  1  0
 12 13  1  0
 13 14  1  0
 14 15  1  0
  4 15  1  0
 16 17  1  0
 17 18  1  0
 18 19  1  0
 19 20  1  0
 12 20  1  0
 13 16  1  0
 16 21  2  0
 13 22  1  6
 12 23  1  6
 15 24  1  1
 24 25  1  0
 24 26  2  0
 25 27  1  0
 27 28  1  0
 21 29  1  0
 29 30  1  0
 30 31  2  0
 31 32  1  0
 32 33  2  0
 33 34  1  0
 34 35  2  0
 35 30  1  0
M  END
> <chembl_id>
CHEMBL3961375

> <chembl_pref_name>
None

$$$$
CHEMBL1448067
     RDKit          2D

 32 36  0  0  0  0  0  0  0  0999 V2000
    8.3717   10.6017    0.0000 S   0  0  0  0  0  0  0  0  0  0  0  0
    6.8726    9.1093    0.0000 S   0  0  0  0  0  0  0  0  0  0  0  0
   10.1257    8.3246    0.0000 O   0  0  0  0  0  0  0  0  0  0  0  0
   10.1257   11.2288    0.0000 O   0  0  0  0  0  0  0  0  0  0  0  0
    5.5627    9.7767    0.0000 O   0  0  0  0  0  0  0  0  0  0  0  0
   13.6557    9.7767    0.0000 O   0  0  0  0  0  0  0  0  0  0  0  0
   10.3557    9.7767    0.0000 N   0  0  0  0  0  0  0  0  0  0  0  0
    6.8726   10.4441    0.0000 N   0  0  0  0  0  0  0  0  0  0  0  0
    9.0862    9.3642    0.0000 C   0  0  0  0  0  0  0  0  0  0  0  0
    9.0862   10.1892    0.0000 C   0  0  0  0  0  0  0  0  0  0  0  0
    8.3717    8.9517    0.0000 C   0  0  0  0  0  0  0  0  0  0  0  0
    9.8708    9.1093    0.0000 C   0  0  0  0  0  0  0  0  0  0  0  0
    9.8708   10.4441    0.0000 C   0  0  0  0  0  0  0  0  0  0  0  0
    7.6572    9.3642    0.0000 C   0  0  0  0  0  0  0  0  0  0  0  0
    7.6572   10.1892    0.0000 C   0  0  0  0  0  0  0  0  0  0  0  0
   11.1807    9.7767    0.0000 C   0  0  0  0  0  0  0  0  0  0  0  0
    8.3717    8.1267    0.0000 C   0  0  0  0  0  0  0  0  0  0  0  0
    6.3877    9.7767    0.0000 C   0  0  0  0  0  0  0  0  0  0  0  0
   11.5932   10.4912    0.0000 C   0  0  0  0  0  0  0  0  0  0  0  0
   11.5932    9.0622    0.0000 C   0  0  0  0  0  0  0  0  0  0  0  0
    9.0862    7.7142    0.0000 C   0  0  0  0  0  0  0  0  0  0  0  0
   12.4182   10.4912    0.0000 C   0  0  0  0  0  0  0  0  0  0  0  0
   12.4182    9.0622    0.0000 C   0  0  0  0  0  0  0  0  0  0  0  0
   12.8307    9.7767    0.0000 C   0  0  0  0  0  0  0  0  0  0  0  0
    9.0862    6.8892    0.0000 C   0  0  0  0  0  0  0  0  0  0  0  0
    9.8007    6.4767    0.0000 C   0  0  0  0  0  0  0  0  0  0  0  0
    8.3717    6.4767    0.0000 C   0  0  0  0  0  0  0  0  0  0  0  0
    9.8007    5.6517    0.0000 C   0  0  0  0  0  0  0  0  0  0  0  0
    8.3717    5.6517    0.0000 C   0  0  0  0  0  0  0  0  0  0  0  0
   14.0682    9.0622    0.0000 C   0  0  0  0  0  0  0  0  0  0  0  0
    9.0862    5.2392    0.0000 C   0  0  0  0  0  0  0  0  0  0  0  0
   14.8932    9.0622    0.0000 C   0  0  0  0  0  0  0  0  0  0  0  0
  1 10  1  0
  1 15  1  0
  2 14  1  0
  2 18  1  0
  3 12  2  0
  4 13  2  0
  5 18  1  0
  6 24  1  0
  6 30  1  0
  7 12  1  0
  7 13  1  0
  7 16  1  0
  8 15  1  0
  8 18  2  0
  9 10  1  0
  9 11  1  0
  9 12  1  0
 10 13  1  0
 11 14  1  0
 11 17  1  0
 14 15  2  0
 16 19  2  0
 16 20  1  0
 17 21  2  0
 19 22  1  0
 20 23  2  0
 21 25  1  0
 22 24  2  0
 23 24  1  0
 25 26  2  0
 25 27  1  0
 26 28  1  0
 27 29  2  0
 28 31  2  0
 29 31  1  0
 30 32  1  0
M  END
> <chembl_id>
CHEMBL1448067

> <chembl_pref_name>
None

$$$$
CHEMBL3905109
     RDKit          2D

 23 26  0  0  0  0  0  0  0  0999 V2000
   10.2976  -21.1797    0.0000 C   0  0  0  0  0  0  0  0  0  0  0  0
   10.9983  -20.7609    0.0000 C   0  0  0  0  0  0  0  0  0  0  0  0
   11.7115  -21.1591    0.0000 N   0  0  0  0  0  0  0  0  0  0  0  0
   12.4122  -20.7403    0.0000 C   0  0  0  0  0  0  0  0  0  0  0  0
   12.4038  -19.9233    0.0000 C   0  0  0  0  0  0  0  0  0  0  0  0
   11.6906  -19.5250    0.0000 N   0  0  0  0  0  0  0  0  0  0  0  0
   10.9900  -19.9438    0.0000 C   0  0  0  0  0  0  0  0  0  0  0  0
    9.5845  -20.7773    0.0000 O   0  0  0  0  0  0  0  0  0  0  0  0
   10.3060  -21.9968    0.0000 N   0  0  0  0  0  0  0  0  0  0  0  0
    9.6053  -22.4114    0.0000 N   0  0  0  0  0  0  0  0  0  0  0  0
   10.3394  -24.4480    0.0000 C   0  0  0  0  0  0  0  0  0  0  0  0
    9.6387  -24.8627    0.0000 N   0  0  0  0  0  0  0  0  0  0  0  0
    8.9255  -24.4644    0.0000 C   0  0  0  0  0  0  0  0  0  0  0  0
    8.9130  -23.6473    0.0000 C   0  0  0  0  0  0  0  0  0  0  0  0
    9.6178  -23.2285    0.0000 C   0  0  0  0  0  0  0  0  0  0  0  0
   10.3310  -23.6309    0.0000 N   0  0  0  0  0  0  0  0  0  0  0  0
    8.1349  -23.4044    0.0000 C   0  0  0  0  0  0  0  0  0  0  0  0
    7.6641  -24.0732    0.0000 C   0  0  0  0  0  0  0  0  0  0  0  0
    8.1535  -24.7266    0.0000 S   0  0  0  0  0  0  0  0  0  0  0  0
    6.8480  -23.9974    0.0000 C   0  0  0  0  0  0  0  0  0  0  0  0
    6.5067  -23.2570    0.0000 C   0  0  0  0  0  0  0  0  0  0  0  0
    6.9774  -22.5882    0.0000 C   0  0  0  0  0  0  0  0  0  0  0  0
    7.7895  -22.6639    0.0000 C   0  0  0  0  0  0  0  0  0  0  0  0
  1  2  1  0
  2  3  1  0
  3  4  2  0
  4  5  1  0
  5  6  2  0
  6  7  1  0
  2  7  2  0
  9 10  1  0
  1  8  2  0
  1  9  1  0
 11 12  1  0
 12 13  2  0
 13 14  1  0
 14 15  2  0
 15 16  1  0
 11 16  2  0
 17 18  1  0
 18 19  1  0
 20 21  1  0
 21 22  2  0
 22 23  1  0
 17 23  2  0
 18 20  2  0
 13 19  1  0
 14 17  1  0
 10 15  1  0
M  END
> <chembl_id>
CHEMBL3905109

> <chembl_pref_name>
None

$$$$
CHEMBL506980
     RDKit          2D

 24 27  0  0  0  0  0  0  0  0999 V2000
   11.4710  -13.3921    0.0000 C   0  0  0  0  0  0  0  0  0  0  0  0
   11.4699  -14.2189    0.0000 C   0  0  0  0  0  0  0  0  0  0  0  0
   12.1842  -14.6316    0.0000 C   0  0  0  0  0  0  0  0  0  0  0  0
   12.1824  -12.9796    0.0000 C   0  0  0  0  0  0  0  0  0  0  0  0
   12.8974  -13.3884    0.0000 C   0  0  0  0  0  0  0  0  0  0  0  0
   12.8962  -14.2210    0.0000 C   0  0  0  0  0  0  0  0  0  0  0  0
   13.6127  -14.6361    0.0000 N   0  0  0  0  0  0  0  0  0  0  0  0
   13.6151  -12.9709    0.0000 C   0  0  0  0  0  0  0  0  0  0  0  0
   14.3361  -13.3905    0.0000 C   0  0  0  0  0  0  0  0  0  0  0  0
   14.3348  -14.2189    0.0000 C   0  0  0  0  0  0  0  0  0  0  0  0
   15.0505  -14.6325    0.0000 C   0  0  0  0  0  0  0  0  0  0  0  0
   15.7679  -14.2187    0.0000 C   0  0  0  0  0  0  0  0  0  0  0  0
   15.7652  -13.3871    0.0000 C   0  0  0  0  0  0  0  0  0  0  0  0
   15.0490  -12.9774    0.0000 C   0  0  0  0  0  0  0  0  0  0  0  0
   13.6151  -12.1464    0.0000 O   0  0  0  0  0  0  0  0  0  0  0  0
   15.0502  -15.4570    0.0000 C   0  0  0  0  0  0  0  0  0  0  0  0
   14.3360  -15.8690    0.0000 O   0  0  0  0  0  0  0  0  0  0  0  0
   15.7640  -15.8696    0.0000 N   0  0  0  0  0  0  0  0  0  0  0  0
   15.7637  -16.6941    0.0000 C   0  0  0  0  0  0  0  0  0  0  0  0
   15.0495  -17.1003    0.0000 C   0  0  0  0  0  0  0  0  0  0  0  0
   15.0488  -17.9242    0.0000 C   0  0  0  0  0  0  0  0  0  0  0  0
   15.7632  -18.3375    0.0000 N   0  0  0  0  0  0  0  0  0  0  0  0
   16.4798  -17.9211    0.0000 C   0  0  0  0  0  0  0  0  0  0  0  0
   16.4769  -17.0987    0.0000 C   0  0  0  0  0  0  0  0  0  0  0  0
 11 12  2  0
  2  3  1  0
 12 13  1  0
  3  6  2  0
 13 14  2  0
 14  9  1  0
  1  2  2  0
  8 15  2  0
  5  8  1  0
 11 16  1  0
  6  7  1  0
 16 17  2  0
  7 10  1  0
 16 18  1  0
  9  8  1  0
 18 19  1  0
  5  4  2  0
 19 20  2  0
  4  1  1  0
 20 21  1  0
  9 10  2  0
 21 22  2  0
  5  6  1  0
 22 23  1  0
 10 11  1  0
 23 24  2  0
 24 19  1  0
M  END
> <chembl_id>
CHEMBL506980

> <chembl_pref_name>
None

$$$$
CHEMBL1822870
     RDKit          2D

 30 34  0  0  0  0  0  0  0  0999 V2000
    1.5007  -16.1797    0.0000 C   0  0  0  0  0  0  0  0  0  0  0  0
    1.4997  -16.9809    0.0000 C   0  0  0  0  0  0  0  0  0  0  0  0
    2.1890  -17.3808    0.0000 C   0  0  0  0  0  0  0  0  0  0  0  0
    2.1873  -15.7799    0.0000 C   0  0  0  0  0  0  0  0  0  0  0  0
    2.8812  -16.1761    0.0000 C   0  0  0  0  0  0  0  0  0  0  0  0
    2.8859  -16.9809    0.0000 C   0  0  0  0  0  0  0  0  0  0  0  0
    3.6531  -17.2268    0.0000 N   0  0  0  0  0  0  0  0  0  0  0  0
    4.1217  -16.5713    0.0000 C   0  0  0  0  0  0  0  0  0  0  0  0
    3.6455  -15.9256    0.0000 N   0  0  0  0  0  0  0  0  0  0  0  0
    0.7764  -15.7645    0.0000 N   0  0  0  0  0  0  0  0  0  0  0  0
    0.7783  -14.9326    0.0000 C   0  0  0  0  0  0  0  0  0  0  0  0
    0.0616  -14.5173    0.0000 C   0  0  0  0  0  0  0  0  0  0  0  0
   -0.6615  -14.9295    0.0000 N   0  0  0  0  0  0  0  0  0  0  0  0
   -0.6633  -15.7615    0.0000 C   0  0  0  0  0  0  0  0  0  0  0  0
    0.0579  -16.1812    0.0000 C   0  0  0  0  0  0  0  0  0  0  0  0
   -1.3767  -14.5115    0.0000 C   0  0  0  0  0  0  0  0  0  0  0  0
    4.9506  -16.5636    0.0000 C   0  0  0  0  0  0  0  0  0  0  0  0
    5.3697  -17.2835    0.0000 C   0  0  0  0  0  0  0  0  0  0  0  0
    6.2000  -17.2790    0.0000 C   0  0  0  0  0  0  0  0  0  0  0  0
    5.3591  -15.8468    0.0000 C   0  0  0  0  0  0  0  0  0  0  0  0
    6.1879  -15.8387    0.0000 C   0  0  0  0  0  0  0  0  0  0  0  0
    6.6120  -16.5550    0.0000 C   0  0  0  0  0  0  0  0  0  0  0  0
    7.4270  -16.3756    0.0000 N   0  0  0  0  0  0  0  0  0  0  0  0
    7.5059  -15.5445    0.0000 C   0  0  0  0  0  0  0  0  0  0  0  0
    6.7395  -15.2113    0.0000 N   0  0  0  0  0  0  0  0  0  0  0  0
    8.2147  -15.1262    0.0000 C   0  0  0  0  0  0  0  0  0  0  0  0
    8.9313  -15.5310    0.0000 N   0  0  0  0  0  0  0  0  0  0  0  0
    9.6400  -15.1127    0.0000 C   0  0  0  0  0  0  0  0  0  0  0  0
   10.3566  -15.5174    0.0000 C   0  0  0  0  0  0  0  0  0  0  0  0
    9.6323  -14.2898    0.0000 O   0  0  0  0  0  0  0  0  0  0  0  0
 13 14  1  0
 14 15  1  0
  1 10  1  0
  5  4  2  0
 13 16  1  0
  6  7  1  0
  7  8  2  0
 17 18  2  0
  8  9  1  0
 18 19  1  0
 19 22  2  0
  9  5  1  0
 21 20  2  0
 20 17  1  0
  8 17  1  0
 21 22  1  0
 10 11  1  0
  4  1  1  0
  5  6  1  0
  2  3  1  0
 22 23  1  0
 23 24  2  0
 24 25  1  0
 25 21  1  0
  3  6  2  0
 24 26  1  0
  1  2  2  0
 26 27  1  0
 10 15  1  0
 27 28  1  0
 11 12  1  0
 28 29  1  0
 12 13  1  0
 28 30  2  0
M  END
> <chembl_id>
CHEMBL1822870

> <chembl_pref_name>
None

$$$$
CHEMBL4063916
     RDKit          2D

 36 38  0  0  0  0  0  0  0  0999 V2000
    4.5358  -22.5058    0.0000 O   0  0  0  0  0  0  0  0  0  0  0  0
    4.1314  -21.8000    0.0000 S   0  0  0  0  0  0  0  0  0  0  0  0
    3.7224  -22.5032    0.0000 O   0  0  0  0  0  0  0  0  0  0  0  0
   12.2083  -19.4599    0.0000 O   0  0  0  0  0  0  0  0  0  0  0  0
   12.6211  -20.1698    0.0000 S   0  0  0  0  0  0  0  0  0  0  0  0
   13.0295  -19.4574    0.0000 O   0  0  0  0  0  0  0  0  0  0  0  0
    7.6725  -20.5701    0.0000 C   0  0  0  0  0  0  0  0  0  0  0  0
    7.6725  -21.3873    0.0000 N   0  0  0  0  0  0  0  0  0  0  0  0
    8.3778  -21.7918    0.0000 C   0  0  0  0  0  0  0  0  0  0  0  0
    9.0831  -21.3873    0.0000 C   0  0  0  0  0  0  0  0  0  0  0  0
    9.0831  -20.5701    0.0000 N   0  0  0  0  0  0  0  0  0  0  0  0
    8.3778  -20.1574    0.0000 C   0  0  0  0  0  0  0  0  0  0  0  0
    9.7920  -20.1636    0.0000 C   0  0  0  0  0  0  0  0  0  0  0  0
   10.4985  -20.5743    0.0000 C   0  0  0  0  0  0  0  0  0  0  0  0
   11.2074  -20.1677    0.0000 C   0  0  0  0  0  0  0  0  0  0  0  0
   11.9139  -20.5784    0.0000 N   0  0  0  0  0  0  0  0  0  0  0  0
   13.3293  -20.5825    0.0000 C   0  0  0  0  0  0  0  0  0  0  0  0
   13.3217  -21.4007    0.0000 C   0  0  0  0  0  0  0  0  0  0  0  0
   14.0273  -21.8113    0.0000 C   0  0  0  0  0  0  0  0  0  0  0  0
   14.7372  -21.4047    0.0000 C   0  0  0  0  0  0  0  0  0  0  0  0
   14.7370  -20.5833    0.0000 C   0  0  0  0  0  0  0  0  0  0  0  0
   14.0307  -20.1764    0.0000 C   0  0  0  0  0  0  0  0  0  0  0  0
    6.9654  -21.7969    0.0000 C   0  0  0  0  0  0  0  0  0  0  0  0
    6.2571  -21.3894    0.0000 C   0  0  0  0  0  0  0  0  0  0  0  0
    5.5500  -21.7990    0.0000 C   0  0  0  0  0  0  0  0  0  0  0  0
    4.8417  -21.3914    0.0000 N   0  0  0  0  0  0  0  0  0  0  0  0
    3.4263  -21.3935    0.0000 C   0  0  0  0  0  0  0  0  0  0  0  0
    3.4244  -20.5772    0.0000 C   0  0  0  0  0  0  0  0  0  0  0  0
    2.7169  -20.1697    0.0000 C   0  0  0  0  0  0  0  0  0  0  0  0
    2.0111  -20.5794    0.0000 C   0  0  0  0  0  0  0  0  0  0  0  0
    2.0155  -21.4008    0.0000 C   0  0  0  0  0  0  0  0  0  0  0  0
    2.7207  -21.8046    0.0000 C   0  0  0  0  0  0  0  0  0  0  0  0
    1.3018  -20.1736    0.0000 O   0  0  0  0  0  0  0  0  0  0  0  0
    1.2987  -19.3564    0.0000 C   0  0  0  0  0  0  0  0  0  0  0  0
   15.4443  -21.8145    0.0000 O   0  0  0  0  0  0  0  0  0  0  0  0
   15.4430  -22.6317    0.0000 C   0  0  0  0  0  0  0  0  0  0  0  0
  2  1  2  0
  3  2  2  0
  5  4  2  0
  6  5  2  0
  7  8  1  0
  7 12  1  0
  8  9  1  0
  9 10  1  0
 10 11  1  0
 11 12  1  0
 11 13  1  0
 13 14  1  0
 14 15  1  0
 15 16  1  0
 16  5  1  0
  5 17  1  0
 17 18  2  0
 18 19  1  0
 19 20  2  0
 20 21  1  0
 21 22  2  0
 22 17  1  0
  8 23  1  0
 23 24  1  0
 24 25  1  0
 25 26  1  0
 26  2  1  0
  2 27  1  0
 27 28  2  0
 28 29  1  0
 29 30  2  0
 30 31  1  0
 31 32  2  0
 32 27  1  0
 30 33  1  0
 33 34  1  0
 20 35  1  0
 35 36  1  0
M  END
> <chembl_id>
CHEMBL4063916

> <chembl_pref_name>
None

$$$$
CHEMBL43565
     RDKit          2D

 31 34  0  0  0  0  0  0  0  0999 V2000
   10.1125   -7.0667    0.0000 C   0  0  0  0  0  0  0  0  0  0  0  0
    1.4375   -6.6167    0.0000 C   0  0  0  0  0  0  0  0  0  0  0  0
   10.8625   -6.7417    0.0000 N   0  0  0  0  0  0  0  0  0  0  0  0
    1.4417   -5.7792    0.0000 N   0  0  0  0  0  0  0  0  0  0  0  0
   10.2000   -7.8917    0.0000 N   0  0  0  0  0  0  0  0  0  0  0  0
    0.7167   -7.0167    0.0000 N   0  0  0  0  0  0  0  0  0  0  0  0
    2.1417   -7.0292    0.0000 N   0  0  0  0  0  0  0  0  0  0  0  0
    9.4000   -6.6542    0.0000 N   0  0  0  0  0  0  0  0  0  0  0  0
    0.7250   -5.3792    0.0000 C   0  0  0  0  0  0  0  0  0  0  0  0
   11.4167   -7.3542    0.0000 C   0  0  0  0  0  0  0  0  0  0  0  0
    0.0125   -5.7792    0.0000 C   0  0  0  0  0  0  0  0  0  0  0  0
   11.0000   -8.0667    0.0000 C   0  0  0  0  0  0  0  0  0  0  0  0
    2.8625   -6.6167    0.0000 C   0  0  0  0  0  0  0  0  0  0  0  0
    8.6875   -7.0667    0.0000 C   0  0  0  0  0  0  0  0  0  0  0  0
    2.8667   -5.7917    0.0000 O   0  0  0  0  0  0  0  0  0  0  0  0
    8.6750   -7.8917    0.0000 O   0  0  0  0  0  0  0  0  0  0  0  0
    0.7250   -4.5417    0.0000 C   0  0  0  0  0  0  0  0  0  0  0  0
   12.2375   -7.3667    0.0000 C   0  0  0  0  0  0  0  0  0  0  0  0
   11.4125   -8.7792    0.0000 C   0  0  0  0  0  0  0  0  0  0  0  0
   -0.7000   -5.3792    0.0000 C   0  0  0  0  0  0  0  0  0  0  0  0
    3.5750   -7.0417    0.0000 C   0  0  0  0  0  0  0  0  0  0  0  0
    7.8625   -7.0667    0.0000 C   0  0  0  0  0  0  0  0  0  0  0  0
    7.1500   -6.6542    0.0000 C   0  0  0  0  0  0  0  0  0  0  0  0
    4.2875   -6.6292    0.0000 C   0  0  0  0  0  0  0  0  0  0  0  0
    6.4292   -7.0542    0.0000 C   0  0  0  0  0  0  0  0  0  0  0  0
    5.0000   -7.0417    0.0000 C   0  0  0  0  0  0  0  0  0  0  0  0
    5.7167   -6.6417    0.0000 C   0  0  0  0  0  0  0  0  0  0  0  0
   12.6500   -8.0667    0.0000 C   0  0  0  0  0  0  0  0  0  0  0  0
    0.0125   -4.1292    0.0000 C   0  0  0  0  0  0  0  0  0  0  0  0
   -0.7000   -4.5542    0.0000 C   0  0  0  0  0  0  0  0  0  0  0  0
   12.2292   -8.7917    0.0000 C   0  0  0  0  0  0  0  0  0  0  0  0
  2  7  1  0
  3  1  2  0
  4  2  2  0
  5  1  1  0
  6  2  1  0
  7 13  1  0
  8  1  1  0
  9  4  1  0
 10  3  1  0
 11  6  1  0
 12  5  1  0
 13 21  1  0
 14  8  1  0
 15 13  2  0
 16 14  2  0
 17  9  1  0
 18 10  1  0
 19 12  1  0
 20 11  1  0
 21 24  1  0
 22 14  1  0
 23 22  1  0
 24 26  1  0
 25 23  1  0
 26 27  1  0
 27 25  1  0
 28 18  2  0
 29 17  2  0
 30 20  2  0
 31 19  2  0
 10 12  2  0
 31 28  1  0
  9 11  2  0
 29 30  1  0
M  END
> <chembl_id>
CHEMBL43565

> <chembl_pref_name>
None

$$$$
CHEMBL3948106
     RDKit          2D

 23 26  0  0  0  0  0  0  0  0999 V2000
   12.8053   -8.4351    0.0000 C   0  0  0  0  0  0  0  0  0  0  0  0
   12.7984   -9.2523    0.0000 C   0  0  0  0  0  0  0  0  0  0  0  0
   13.5020   -9.6662    0.0000 C   0  0  0  0  0  0  0  0  0  0  0  0
   14.2165   -9.2672    0.0000 C   0  0  0  0  0  0  0  0  0  0  0  0
   14.2234   -8.4500    0.0000 C   0  0  0  0  0  0  0  0  0  0  0  0
   13.5198   -8.0320    0.0000 C   0  0  0  0  0  0  0  0  0  0  0  0
   12.1017   -8.0212    0.0000 O   0  0  0  0  0  0  0  0  0  0  0  0
   12.0880   -9.6555    0.0000 C   0  0  0  0  0  0  0  0  0  0  0  0
   11.3845   -9.2415    0.0000 C   0  0  0  0  0  0  0  0  0  0  0  0
   12.0812  -10.4726    0.0000 N   0  0  0  0  0  0  0  0  0  0  0  0
   11.3708  -10.8758    0.0000 N   0  0  0  0  0  0  0  0  0  0  0  0
    9.8756  -11.8352    0.0000 C   0  0  0  0  0  0  0  0  0  0  0  0
    9.3907  -12.4919    0.0000 C   0  0  0  0  0  0  0  0  0  0  0  0
    9.8661  -13.1575    0.0000 S   0  0  0  0  0  0  0  0  0  0  0  0
   10.6425  -12.9133    0.0000 C   0  0  0  0  0  0  0  0  0  0  0  0
   11.3461  -13.3272    0.0000 N   0  0  0  0  0  0  0  0  0  0  0  0
   12.0606  -12.9240    0.0000 C   0  0  0  0  0  0  0  0  0  0  0  0
   12.0675  -12.1069    0.0000 N   0  0  0  0  0  0  0  0  0  0  0  0
   11.3639  -11.6929    0.0000 C   0  0  0  0  0  0  0  0  0  0  0  0
   10.6494  -12.0961    0.0000 C   0  0  0  0  0  0  0  0  0  0  0  0
    8.6169  -12.2309    0.0000 C   0  0  0  0  0  0  0  0  0  0  0  0
    8.6238  -11.4138    0.0000 C   0  0  0  0  0  0  0  0  0  0  0  0
    9.4002  -11.1696    0.0000 C   0  0  0  0  0  0  0  0  0  0  0  0
  1  2  1  0
  2  3  2  0
  3  4  1  0
  4  5  2  0
  5  6  1  0
  1  6  2  0
  1  7  1  0
  8  9  1  0
 10 11  1  0
 12 13  2  0
 13 14  1  0
 14 15  1  0
 15 16  2  0
 16 17  1  0
 17 18  2  0
 18 19  1  0
 19 20  2  0
 12 20  1  0
 15 20  1  0
 21 22  1  0
 22 23  1  0
 12 23  1  0
 13 21  1  0
 11 19  1  0
  8 10  2  0
  2  8  1  0
M  END
> <chembl_id>
CHEMBL3948106

> <chembl_pref_name>
None

$$$$
CHEMBL4095027
     RDKit          2D

 34 36  0  0  0  0  0  0  0  0999 V2000
   29.4189  -10.1117    0.0000 O   0  0  0  0  0  0  0  0  0  0  0  0
   29.0144   -9.4060    0.0000 S   0  0  0  0  0  0  0  0  0  0  0  0
   28.6054  -10.1091    0.0000 O   0  0  0  0  0  0  0  0  0  0  0  0
   20.1079   -7.0658    0.0000 O   0  0  0  0  0  0  0  0  0  0  0  0
   20.5206   -7.7757    0.0000 S   0  0  0  0  0  0  0  0  0  0  0  0
   20.9290   -7.0633    0.0000 O   0  0  0  0  0  0  0  0  0  0  0  0
   24.0603   -8.1843    0.0000 C   0  0  0  0  0  0  0  0  0  0  0  0
   24.0592   -9.0038    0.0000 C   0  0  0  0  0  0  0  0  0  0  0  0
   24.7672   -9.4128    0.0000 C   0  0  0  0  0  0  0  0  0  0  0  0
   25.4769   -9.0033    0.0000 C   0  0  0  0  0  0  0  0  0  0  0  0
   25.4741   -8.1807    0.0000 C   0  0  0  0  0  0  0  0  0  0  0  0
   24.7654   -7.7754    0.0000 C   0  0  0  0  0  0  0  0  0  0  0  0
   26.1852   -9.4108    0.0000 N   0  0  0  0  0  0  0  0  0  0  0  0
   23.3525   -7.7758    0.0000 N   0  0  0  0  0  0  0  0  0  0  0  0
   22.6449   -8.1846    0.0000 C   0  0  0  0  0  0  0  0  0  0  0  0
   21.9371   -7.7762    0.0000 C   0  0  0  0  0  0  0  0  0  0  0  0
   21.2295   -8.1849    0.0000 N   0  0  0  0  0  0  0  0  0  0  0  0
   19.8141   -8.1853    0.0000 C   0  0  0  0  0  0  0  0  0  0  0  0
   19.1072   -7.7751    0.0000 C   0  0  0  0  0  0  0  0  0  0  0  0
   18.4001   -8.1831    0.0000 C   0  0  0  0  0  0  0  0  0  0  0  0
   18.3998   -9.0012    0.0000 C   0  0  0  0  0  0  0  0  0  0  0  0
   19.1126   -9.4095    0.0000 C   0  0  0  0  0  0  0  0  0  0  0  0
   19.8168   -8.9990    0.0000 C   0  0  0  0  0  0  0  0  0  0  0  0
   17.6928   -9.4109    0.0000 Cl  0  0  0  0  0  0  0  0  0  0  0  0
   26.8923   -9.0011    0.0000 C   0  0  0  0  0  0  0  0  0  0  0  0
   27.6007   -9.4086    0.0000 C   0  0  0  0  0  0  0  0  0  0  0  0
   28.3077   -8.9989    0.0000 N   0  0  0  0  0  0  0  0  0  0  0  0
   29.7231   -8.9967    0.0000 C   0  0  0  0  0  0  0  0  0  0  0  0
   30.4286   -9.4043    0.0000 C   0  0  0  0  0  0  0  0  0  0  0  0
   31.1352   -8.9953    0.0000 C   0  0  0  0  0  0  0  0  0  0  0  0
   31.1344   -8.1773    0.0000 C   0  0  0  0  0  0  0  0  0  0  0  0
   30.4211   -7.7699    0.0000 C   0  0  0  0  0  0  0  0  0  0  0  0
   29.7174   -8.1813    0.0000 C   0  0  0  0  0  0  0  0  0  0  0  0
   31.8409   -7.7666    0.0000 Cl  0  0  0  0  0  0  0  0  0  0  0  0
  2  1  2  0
  3  2  2  0
  5  4  2  0
  6  5  2  0
  7  8  2  0
  8  9  1  0
  9 10  2  0
 10 11  1  0
 11 12  2  0
 12  7  1  0
 10 13  1  0
  7 14  1  0
 14 15  1  0
 15 16  1  0
 16 17  1  0
 17  5  1  0
  5 18  1  0
 18 19  2  0
 19 20  1  0
 20 21  2  0
 21 22  1  0
 22 23  2  0
 23 18  1  0
 21 24  1  0
 13 25  1  0
 25 26  1  0
 26 27  1  0
 27  2  1  0
  2 28  1  0
 28 29  2  0
 29 30  1  0
 30 31  2  0
 31 32  1  0
 32 33  2  0
 33 28  1  0
 31 34  1  0
M  END
> <chembl_id>
CHEMBL4095027

> <chembl_pref_name>
None

$$$$
CHEMBL3983525
     RDKit          2D

 21 23  0  0  0  0  0  0  0  0999 V2000
   18.8107   -9.2466    0.0000 C   0  0  0  0  0  0  0  0  0  0  0  0
   18.1016   -9.6552    0.0000 C   0  0  0  0  0  0  0  0  0  0  0  0
   18.8107   -8.4294    0.0000 N   0  0  0  0  0  0  0  0  0  0  0  0
   17.3925   -9.2466    0.0000 N   0  0  0  0  0  0  0  0  0  0  0  0
   17.3925   -8.4294    0.0000 C   0  0  0  0  0  0  0  0  0  0  0  0
   18.1016   -8.0208    0.0000 C   0  0  0  0  0  0  0  0  0  0  0  0
   19.5198   -9.6552    0.0000 C   0  0  0  0  0  0  0  0  0  0  0  0
   20.2247   -9.2466    0.0000 O   0  0  0  0  0  0  0  0  0  0  0  0
   19.5198  -10.4724    0.0000 N   0  0  0  0  0  0  0  0  0  0  0  0
   18.8107  -10.8810    0.0000 N   0  0  0  0  0  0  0  0  0  0  0  0
   19.5198  -12.9239    0.0000 C   0  0  0  0  0  0  0  0  0  0  0  0
   18.8107  -13.3325    0.0000 N   0  0  0  0  0  0  0  0  0  0  0  0
   18.1016  -12.9239    0.0000 C   0  0  0  0  0  0  0  0  0  0  0  0
   18.1016  -12.1068    0.0000 C   0  0  0  0  0  0  0  0  0  0  0  0
   18.8107  -11.6982    0.0000 C   0  0  0  0  0  0  0  0  0  0  0  0
   19.5198  -12.1068    0.0000 N   0  0  0  0  0  0  0  0  0  0  0  0
   17.3244  -11.8562    0.0000 C   0  0  0  0  0  0  0  0  0  0  0  0
   16.8442  -12.5154    0.0000 C   0  0  0  0  0  0  0  0  0  0  0  0
   17.3244  -13.1786    0.0000 S   0  0  0  0  0  0  0  0  0  0  0  0
   16.0270  -12.5154    0.0000 C   0  0  0  0  0  0  0  0  0  0  0  0
   17.0738  -11.0790    0.0000 C   0  0  0  0  0  0  0  0  0  0  0  0
  1  2  1  0
  1  3  2  0
  2  4  2  0
  4  5  1  0
  5  6  2  0
  3  6  1  0
  9 10  1  0
  7  8  2  0
  7  9  1  0
  1  7  1  0
 11 12  1  0
 12 13  2  0
 13 14  1  0
 14 15  2  0
 15 16  1  0
 11 16  2  0
 17 18  2  0
 18 19  1  0
 13 19  1  0
 14 17  1  0
 18 20  1  0
 17 21  1  0
 10 15  1  0
M  END
> <chembl_id>
CHEMBL3983525

> <chembl_pref_name>
None

$$$$
CHEMBL4552648
     RDKit          2D

 18 20  0  0  0  0  0  0  0  0999 V2000
   15.0587   -8.4559    0.0000 N   0  0  0  0  0  0  0  0  0  0  0  0
   14.3957   -7.9738    0.0000 N   0  0  0  0  0  0  0  0  0  0  0  0
   13.7370   -8.4559    0.0000 C   0  0  0  0  0  0  0  0  0  0  0  0
   14.8043   -9.2326    0.0000 C   0  0  0  0  0  0  0  0  0  0  0  0
   13.9871   -9.2326    0.0000 N   0  0  0  0  0  0  0  0  0  0  0  0
   13.7346  -10.0098    0.0000 N   0  0  0  0  0  0  0  0  0  0  0  0
   14.3957  -10.4902    0.0000 C   0  0  0  0  0  0  0  0  0  0  0  0
   15.0568  -10.0098    0.0000 S   0  0  0  0  0  0  0  0  0  0  0  0
   14.3958  -11.3074    0.0000 C   0  0  0  0  0  0  0  0  0  0  0  0
   13.6883  -11.7127    0.0000 C   0  0  0  0  0  0  0  0  0  0  0  0
   13.6880  -12.5292    0.0000 C   0  0  0  0  0  0  0  0  0  0  0  0
   14.3963  -12.9386    0.0000 C   0  0  0  0  0  0  0  0  0  0  0  0
   15.1063  -12.5255    0.0000 C   0  0  0  0  0  0  0  0  0  0  0  0
   15.1031  -11.7105    0.0000 C   0  0  0  0  0  0  0  0  0  0  0  0
   15.8089  -11.2985    0.0000 O   0  0  0  0  0  0  0  0  0  0  0  0
   16.5185  -11.7036    0.0000 C   0  0  0  0  0  0  0  0  0  0  0  0
   15.8155  -12.9316    0.0000 O   0  0  0  0  0  0  0  0  0  0  0  0
   16.5217  -12.5205    0.0000 C   0  0  0  0  0  0  0  0  0  0  0  0
  4  1  2  0
  1  2  1  0
  2  3  2  0
  3  5  1  0
  4  5  1  0
  5  6  1  0
  6  7  2  0
  7  8  1  0
  8  4  1  0
  7  9  1  0
  9 10  2  0
 10 11  1  0
 11 12  2  0
 12 13  1  0
 13 14  2  0
 14  9  1  0
 14 15  1  0
 15 16  1  0
 13 17  1  0
 17 18  1  0
M  END
> <chembl_id>
CHEMBL4552648

> <chembl_pref_name>
None

$$$$
CHEMBL4063334
     RDKit          2D

 40 44  0  0  0  0  0  0  0  0999 V2000
   21.3914  -21.9857    0.0000 O   0  0  0  0  0  0  0  0  0  0  0  0
   20.9870  -21.2800    0.0000 S   0  0  0  0  0  0  0  0  0  0  0  0
   20.5780  -21.9831    0.0000 O   0  0  0  0  0  0  0  0  0  0  0  0
   29.0639  -18.9399    0.0000 O   0  0  0  0  0  0  0  0  0  0  0  0
   29.4767  -19.6497    0.0000 S   0  0  0  0  0  0  0  0  0  0  0  0
   29.8851  -18.9374    0.0000 O   0  0  0  0  0  0  0  0  0  0  0  0
   24.5281  -20.0501    0.0000 C   0  0  0  0  0  0  0  0  0  0  0  0
   24.5281  -20.8673    0.0000 N   0  0  0  0  0  0  0  0  0  0  0  0
   25.2334  -21.2717    0.0000 C   0  0  0  0  0  0  0  0  0  0  0  0
   25.9387  -20.8673    0.0000 C   0  0  0  0  0  0  0  0  0  0  0  0
   25.9387  -20.0501    0.0000 N   0  0  0  0  0  0  0  0  0  0  0  0
   25.2334  -19.6374    0.0000 C   0  0  0  0  0  0  0  0  0  0  0  0
   26.6476  -19.6436    0.0000 C   0  0  0  0  0  0  0  0  0  0  0  0
   27.3541  -20.0542    0.0000 C   0  0  0  0  0  0  0  0  0  0  0  0
   28.0630  -19.6477    0.0000 C   0  0  0  0  0  0  0  0  0  0  0  0
   28.7695  -20.0584    0.0000 N   0  0  0  0  0  0  0  0  0  0  0  0
   30.1849  -20.0625    0.0000 C   0  0  0  0  0  0  0  0  0  0  0  0
   30.1773  -20.8807    0.0000 C   0  0  0  0  0  0  0  0  0  0  0  0
   30.8863  -19.6564    0.0000 C   0  0  0  0  0  0  0  0  0  0  0  0
   23.8210  -21.2769    0.0000 C   0  0  0  0  0  0  0  0  0  0  0  0
   23.1127  -20.8693    0.0000 C   0  0  0  0  0  0  0  0  0  0  0  0
   22.4056  -21.2789    0.0000 C   0  0  0  0  0  0  0  0  0  0  0  0
   21.6973  -20.8714    0.0000 N   0  0  0  0  0  0  0  0  0  0  0  0
   20.2819  -20.8734    0.0000 C   0  0  0  0  0  0  0  0  0  0  0  0
   20.2800  -20.0572    0.0000 C   0  0  0  0  0  0  0  0  0  0  0  0
   19.5725  -19.6497    0.0000 C   0  0  0  0  0  0  0  0  0  0  0  0
   19.5763  -21.2846    0.0000 C   0  0  0  0  0  0  0  0  0  0  0  0
   31.5926  -20.0633    0.0000 C   0  0  0  0  0  0  0  0  0  0  0  0
   18.8711  -20.8808    0.0000 C   0  0  0  0  0  0  0  0  0  0  0  0
   18.8704  -20.0623    0.0000 C   0  0  0  0  0  0  0  0  0  0  0  0
   18.1623  -19.6554    0.0000 C   0  0  0  0  0  0  0  0  0  0  0  0
   17.4544  -20.0660    0.0000 C   0  0  0  0  0  0  0  0  0  0  0  0
   17.4591  -20.8876    0.0000 C   0  0  0  0  0  0  0  0  0  0  0  0
   18.1678  -21.2908    0.0000 C   0  0  0  0  0  0  0  0  0  0  0  0
   31.5914  -20.8820    0.0000 C   0  0  0  0  0  0  0  0  0  0  0  0
   30.8829  -21.2897    0.0000 C   0  0  0  0  0  0  0  0  0  0  0  0
   30.8827  -22.1052    0.0000 C   0  0  0  0  0  0  0  0  0  0  0  0
   31.5902  -22.5141    0.0000 C   0  0  0  0  0  0  0  0  0  0  0  0
   32.2995  -22.1014    0.0000 C   0  0  0  0  0  0  0  0  0  0  0  0
   32.2962  -21.2872    0.0000 C   0  0  0  0  0  0  0  0  0  0  0  0
  2  1  2  0
  3  2  2  0
  5  4  2  0
  6  5  2  0
  7  8  1  0
  7 12  1  0
  8  9  1  0
  9 10  1  0
 10 11  1  0
 11 12  1  0
 11 13  1  0
 13 14  1  0
 14 15  1  0
 15 16  1  0
 16  5  1  0
  5 17  1  0
 17 18  2  0
 18 36  1  0
 28 19  2  0
 19 17  1  0
  8 20  1  0
 20 21  1  0
 21 22  1  0
 22 23  1  0
 23  2  1  0
  2 24  1  0
 24 25  2  0
 25 26  1  0
 26 30  2  0
 29 27  2  0
 27 24  1  0
 28 35  1  0
 29 30  1  0
 30 31  1  0
 31 32  2  0
 32 33  1  0
 33 34  2  0
 34 29  1  0
 35 36  1  0
 36 37  2  0
 37 38  1  0
 38 39  2  0
 39 40  1  0
 40 35  2  0
M  END
> <chembl_id>
CHEMBL4063334

> <chembl_pref_name>
None

$$$$
CHEMBL4067609
     RDKit          2D

 33 35  0  0  0  0  0  0  0  0999 V2000
   20.6361  -12.6747    0.0000 O   0  0  0  0  0  0  0  0  0  0  0  0
   21.0489  -13.3846    0.0000 S   0  0  0  0  0  0  0  0  0  0  0  0
   21.4573  -12.6722    0.0000 O   0  0  0  0  0  0  0  0  0  0  0  0
   29.9389  -15.7206    0.0000 O   0  0  0  0  0  0  0  0  0  0  0  0
   29.5344  -15.0149    0.0000 S   0  0  0  0  0  0  0  0  0  0  0  0
   29.1255  -15.7180    0.0000 O   0  0  0  0  0  0  0  0  0  0  0  0
   24.5900  -13.7849    0.0000 N   0  0  0  0  0  0  0  0  0  0  0  0
   24.5900  -14.6021    0.0000 C   0  0  0  0  0  0  0  0  0  0  0  0
   25.2953  -15.0066    0.0000 C   0  0  0  0  0  0  0  0  0  0  0  0
   26.0006  -14.6021    0.0000 N   0  0  0  0  0  0  0  0  0  0  0  0
   26.0006  -13.7849    0.0000 C   0  0  0  0  0  0  0  0  0  0  0  0
   25.2953  -13.3722    0.0000 C   0  0  0  0  0  0  0  0  0  0  0  0
   26.7077  -15.0118    0.0000 C   0  0  0  0  0  0  0  0  0  0  0  0
   27.4160  -14.6042    0.0000 C   0  0  0  0  0  0  0  0  0  0  0  0
   28.1231  -15.0138    0.0000 C   0  0  0  0  0  0  0  0  0  0  0  0
   28.8314  -14.6062    0.0000 N   0  0  0  0  0  0  0  0  0  0  0  0
   30.2468  -14.6083    0.0000 C   0  0  0  0  0  0  0  0  0  0  0  0
   23.8811  -13.3784    0.0000 C   0  0  0  0  0  0  0  0  0  0  0  0
   23.1746  -13.7891    0.0000 C   0  0  0  0  0  0  0  0  0  0  0  0
   22.4657  -13.3826    0.0000 C   0  0  0  0  0  0  0  0  0  0  0  0
   21.7592  -13.7932    0.0000 N   0  0  0  0  0  0  0  0  0  0  0  0
   20.3438  -13.7974    0.0000 C   0  0  0  0  0  0  0  0  0  0  0  0
   19.6357  -13.3874    0.0000 C   0  0  0  0  0  0  0  0  0  0  0  0
   18.9297  -13.7974    0.0000 C   0  0  0  0  0  0  0  0  0  0  0  0
   18.9317  -14.6154    0.0000 C   0  0  0  0  0  0  0  0  0  0  0  0
   19.6455  -15.0218    0.0000 C   0  0  0  0  0  0  0  0  0  0  0  0
   20.3486  -14.6094    0.0000 C   0  0  0  0  0  0  0  0  0  0  0  0
   30.9505  -15.0220    0.0000 C   0  0  0  0  0  0  0  0  0  0  0  0
   31.6583  -14.6151    0.0000 C   0  0  0  0  0  0  0  0  0  0  0  0
   31.6599  -13.7970    0.0000 C   0  0  0  0  0  0  0  0  0  0  0  0
   30.9478  -13.3876    0.0000 C   0  0  0  0  0  0  0  0  0  0  0  0
   30.2429  -13.7968    0.0000 C   0  0  0  0  0  0  0  0  0  0  0  0
   18.2257  -15.0270    0.0000 Cl  0  0  0  0  0  0  0  0  0  0  0  0
  2  1  2  0
  3  2  2  0
  5  4  2  0
  6  5  2  0
  7  8  1  0
  7 12  1  0
  8  9  1  0
  9 10  1  0
 10 11  1  0
 11 12  1  0
 10 13  1  0
 13 14  1  0
 14 15  1  0
 15 16  1  0
 16  5  1  0
  5 17  1  0
  7 18  1  0
 18 19  1  0
 19 20  1  0
 20 21  1  0
 21  2  1  0
  2 22  1  0
 22 23  2  0
 23 24  1  0
 24 25  2  0
 25 26  1  0
 26 27  2  0
 27 22  1  0
 17 28  2  0
 28 29  1  0
 29 30  2  0
 30 31  1  0
 31 32  2  0
 32 17  1  0
 25 33  1  0
M  END
> <chembl_id>
CHEMBL4067609

> <chembl_pref_name>
None

$$$$
CHEMBL3120367
     RDKit          2D

 27 30  0  0  0  0  0  0  0  0999 V2000
   14.1715  -18.6096    0.0000 C   0  0  0  0  0  0  0  0  0  0  0  0
   14.1703  -19.4250    0.0000 C   0  0  0  0  0  0  0  0  0  0  0  0
   14.8825  -19.8340    0.0000 C   0  0  0  0  0  0  0  0  0  0  0  0
   14.8807  -18.2008    0.0000 C   0  0  0  0  0  0  0  0  0  0  0  0
   15.5852  -18.6060    0.0000 C   0  0  0  0  0  0  0  0  0  0  0  0
   15.5855  -19.4251    0.0000 C   0  0  0  0  0  0  0  0  0  0  0  0
   16.3643  -19.6751    0.0000 N   0  0  0  0  0  0  0  0  0  0  0  0
   16.8398  -19.0214    0.0000 C   0  0  0  0  0  0  0  0  0  0  0  0
   16.3639  -18.3556    0.0000 C   0  0  0  0  0  0  0  0  0  0  0  0
   16.6162  -17.5742    0.0000 C   0  0  0  0  0  0  0  0  0  0  0  0
   17.4113  -17.4041    0.0000 C   0  0  0  0  0  0  0  0  0  0  0  0
   17.6636  -16.6268    0.0000 O   0  0  0  0  0  0  0  0  0  0  0  0
   17.9583  -18.0112    0.0000 O   0  0  0  0  0  0  0  0  0  0  0  0
   16.6129  -20.4564    0.0000 C   0  0  0  0  0  0  0  0  0  0  0  0
   17.4118  -20.6305    0.0000 C   0  0  0  0  0  0  0  0  0  0  0  0
   17.6625  -21.4045    0.0000 C   0  0  0  0  0  0  0  0  0  0  0  0
   18.4575  -21.5778    0.0000 C   0  0  0  0  0  0  0  0  0  0  0  0
   19.0072  -20.9774    0.0000 C   0  0  0  0  0  0  0  0  0  0  0  0
   18.7547  -20.1961    0.0000 C   0  0  0  0  0  0  0  0  0  0  0  0
   17.9604  -20.0215    0.0000 C   0  0  0  0  0  0  0  0  0  0  0  0
   13.4601  -19.8334    0.0000 C   0  0  0  0  0  0  0  0  0  0  0  0
   12.7565  -19.4266    0.0000 C   0  0  0  0  0  0  0  0  0  0  0  0
   12.0449  -19.8340    0.0000 C   0  0  0  0  0  0  0  0  0  0  0  0
   12.0438  -20.6562    0.0000 C   0  0  0  0  0  0  0  0  0  0  0  0
   12.7561  -21.0652    0.0000 C   0  0  0  0  0  0  0  0  0  0  0  0
   13.4608  -20.6555    0.0000 C   0  0  0  0  0  0  0  0  0  0  0  0
   19.3061  -19.5941    0.0000 Cl  0  0  0  0  0  0  0  0  0  0  0  0
  1  2  2  0
  2  3  1  0
  3  6  2  0
  5  4  2  0
  4  1  1  0
  5  6  1  0
  6  7  1  0
  7  8  1  0
  8  9  2  0
  9  5  1  0
  9 10  1  0
 10 11  1  0
 11 12  2  0
 11 13  1  0
  7 14  1  0
 14 15  1  0
 15 16  2  0
 16 17  1  0
 17 18  2  0
 18 19  1  0
 19 20  2  0
 20 15  1  0
 21 22  2  0
 22 23  1  0
 23 24  2  0
 24 25  1  0
 25 26  2  0
 26 21  1  0
  2 21  1  0
 19 27  1  0
M  END
> <chembl_id>
CHEMBL3120367

> <chembl_pref_name>
None

$$$$
CHEMBL404563
     RDKit          2D

 41 46  0  0  1  0  0  0  0  0999 V2000
   11.1519  -10.4862    0.0000 C   0  0  0  0  0  0  0  0  0  0  0  0
   10.9352   -9.6862    0.0000 C   0  0  0  0  0  0  0  0  0  0  0  0
   10.4581  -10.9394    0.0000 C   0  0  0  0  0  0  0  0  0  0  0  0
   11.4072  -11.2739    0.0000 C   0  0  0  0  0  0  0  0  0  0  0  0
   12.2321  -11.2739    0.0000 C   0  0  0  0  0  0  0  0  0  0  0  0
   12.4889  -10.4899    0.0000 C   0  0  0  0  0  0  0  0  0  0  0  0
   11.8196  -10.0032    0.0000 O   0  0  0  0  0  0  0  0  0  0  0  0
    9.8125  -10.4197    0.0000 C   0  0  0  0  0  0  0  0  0  0  0  0
   10.1072   -9.6453    0.0000 C   0  0  0  0  0  0  0  0  0  0  0  0
    9.4619   -9.1257    0.0000 C   0  0  0  0  0  0  0  0  0  0  0  0
    8.7681   -9.5790    0.0000 C   0  0  0  0  0  0  0  0  0  0  0  0
    8.9850  -10.3787    0.0000 S   0  0  0  0  0  0  0  0  0  0  0  0
    7.9972   -9.2856    0.0000 C   0  0  0  0  0  0  0  0  0  0  0  0
   11.4527   -9.0438    0.0000 O   0  0  0  0  0  0  0  0  0  0  0  0
   10.4171  -11.7632    0.0000 O   0  0  0  0  0  0  0  0  0  0  0  0
   11.3989  -12.0988    0.0000 C   0  0  0  0  0  0  0  0  0  0  0  0
   10.6825  -12.5054    0.0000 O   0  0  0  0  0  0  0  0  0  0  0  0
   12.1113  -12.5198    0.0000 O   0  0  0  0  0  0  0  0  0  0  0  0
   12.7161  -11.9418    0.0000 C   0  0  0  0  0  0  0  0  0  0  0  0
   12.7112  -12.7654    0.0000 O   0  0  0  0  0  0  0  0  0  0  0  0
   13.5017  -11.6897    0.0000 N   0  0  0  0  0  0  0  0  0  0  0  0
   14.1127  -12.2439    0.0000 C   0  0  0  0  0  0  0  0  0  0  0  0
   13.9345  -13.0469    0.0000 C   0  0  0  0  0  0  0  0  0  0  0  0
   14.5448  -13.6009    0.0000 C   0  0  0  0  0  0  0  0  0  0  0  0
   15.3312  -13.3489    0.0000 C   0  0  0  0  0  0  0  0  0  0  0  0
   15.5039  -12.5379    0.0000 C   0  0  0  0  0  0  0  0  0  0  0  0
   14.8923  -11.9875    0.0000 C   0  0  0  0  0  0  0  0  0  0  0  0
   15.9407  -13.8977    0.0000 N   0  0  0  0  0  0  0  0  0  0  0  0
   15.7652  -14.7048    0.0000 C   0  0  0  0  0  0  0  0  0  0  0  0
   16.3731  -15.2571    0.0000 C   0  0  0  0  0  0  0  0  0  0  0  0
   17.1598  -15.0079    0.0000 O   0  0  0  0  0  0  0  0  0  0  0  0
   17.3353  -14.2009    0.0000 C   0  0  0  0  0  0  0  0  0  0  0  0
   16.7241  -13.6431    0.0000 C   0  0  0  0  0  0  0  0  0  0  0  0
   13.2700  -10.2347    0.0000 C   0  0  0  0  0  0  0  0  0  0  0  0
   13.8821  -10.7892    0.0000 C   0  0  0  0  0  0  0  0  0  0  0  0
   14.6665  -10.5360    0.0000 C   0  0  0  0  0  0  0  0  0  0  0  0
   14.8397   -9.7285    0.0000 C   0  0  0  0  0  0  0  0  0  0  0  0
   14.2225   -9.1748    0.0000 C   0  0  0  0  0  0  0  0  0  0  0  0
   13.4406   -9.4310    0.0000 C   0  0  0  0  0  0  0  0  0  0  0  0
   15.6243   -9.4737    0.0000 Br  0  0  0  0  0  0  0  0  0  0  0  0
   15.2784  -11.0891    0.0000 Br  0  0  0  0  0  0  0  0  0  0  0  0
  4  5  1  0
 19 20  2  0
  1  2  1  0
 19 21  1  0
 21 22  1  0
  2  9  1  0
 22 23  2  0
  9 10  1  0
 23 24  1  0
 10 11  2  0
 24 25  2  0
 11 12  1  0
 25 26  1  0
  8 12  1  0
 26 27  2  0
 27 22  1  0
 28 29  1  0
  8  3  1  0
 11 13  1  0
  5  6  1  0
  2 14  2  0
  6  7  1  0
  3 15  2  0
 28 33  1  0
 29 30  1  0
 30 31  1  0
 31 32  1  0
 32 33  1  0
 25 28  1  0
  7  1  1  0
  4 16  1  1
 34 35  2  0
  1  4  1  0
 35 36  1  0
  8  9  1  0
 36 37  2  0
 16 17  1  0
 37 38  1  0
 16 18  2  0
 38 39  2  0
 39 34  1  0
  6 34  1  1
  1  3  1  1
 37 40  1  0
  5 19  1  1
 36 41  1  0
M  END
> <chembl_id>
CHEMBL404563

> <chembl_pref_name>
None

$$$$
CHEMBL1822706
     RDKit          2D

 61 70  0  0  0  0  0  0  0  0999 V2000
   -2.6325   -5.0900    0.0000 C   0  0  0  0  0  0  0  0  0  0  0  0
   -2.6336   -5.8933    0.0000 C   0  0  0  0  0  0  0  0  0  0  0  0
   -1.9426   -6.2940    0.0000 C   0  0  0  0  0  0  0  0  0  0  0  0
   -1.9443   -4.6893    0.0000 C   0  0  0  0  0  0  0  0  0  0  0  0
   -1.2487   -5.0866    0.0000 C   0  0  0  0  0  0  0  0  0  0  0  0
   -1.2440   -5.8933    0.0000 C   0  0  0  0  0  0  0  0  0  0  0  0
   -0.4749   -6.1397    0.0000 N   0  0  0  0  0  0  0  0  0  0  0  0
   -0.0052   -5.4827    0.0000 C   0  0  0  0  0  0  0  0  0  0  0  0
   -0.4825   -4.8353    0.0000 N   0  0  0  0  0  0  0  0  0  0  0  0
   -3.3586   -4.6738    0.0000 N   0  0  0  0  0  0  0  0  0  0  0  0
   -3.3568   -3.8399    0.0000 C   0  0  0  0  0  0  0  0  0  0  0  0
   -4.0752   -3.4237    0.0000 C   0  0  0  0  0  0  0  0  0  0  0  0
   -4.8000   -3.8368    0.0000 N   0  0  0  0  0  0  0  0  0  0  0  0
   -4.8019   -4.6708    0.0000 C   0  0  0  0  0  0  0  0  0  0  0  0
   -4.0788   -5.0916    0.0000 C   0  0  0  0  0  0  0  0  0  0  0  0
   -5.5171   -3.4178    0.0000 C   0  0  0  0  0  0  0  0  0  0  0  0
    0.8259   -5.4750    0.0000 C   0  0  0  0  0  0  0  0  0  0  0  0
    1.2460   -6.1966    0.0000 C   0  0  0  0  0  0  0  0  0  0  0  0
    2.0782   -6.1921    0.0000 C   0  0  0  0  0  0  0  0  0  0  0  0
    1.2353   -4.7563    0.0000 C   0  0  0  0  0  0  0  0  0  0  0  0
    2.0662   -4.7483    0.0000 C   0  0  0  0  0  0  0  0  0  0  0  0
    2.4912   -5.4662    0.0000 C   0  0  0  0  0  0  0  0  0  0  0  0
    3.3084   -5.2864    0.0000 N   0  0  0  0  0  0  0  0  0  0  0  0
    3.3874   -4.4533    0.0000 C   0  0  0  0  0  0  0  0  0  0  0  0
    2.6190   -4.1193    0.0000 N   0  0  0  0  0  0  0  0  0  0  0  0
    4.1060   -4.0302    0.0000 C   0  0  0  0  0  0  0  0  0  0  0  0
    4.8322   -4.4400    0.0000 N   0  0  0  0  0  0  0  0  0  0  0  0
    5.5469   -4.0169    0.0000 C   0  0  0  0  0  0  0  0  0  0  0  0
    5.5392   -3.1839    0.0000 O   0  0  0  0  0  0  0  0  0  0  0  0
    6.2731   -4.4267    0.0000 C   0  0  0  0  0  0  0  0  0  0  0  0
    6.9916   -4.0035    0.0000 C   0  0  0  0  0  0  0  0  0  0  0  0
    7.7096   -4.4099    0.0000 C   0  0  0  0  0  0  0  0  0  0  0  0
    8.4206   -3.9913    0.0000 C   0  0  0  0  0  0  0  0  0  0  0  0
    8.4135   -3.1664    0.0000 O   0  0  0  0  0  0  0  0  0  0  0  0
    9.1386   -4.3977    0.0000 N   0  0  0  0  0  0  0  0  0  0  0  0
    9.8494   -3.9791    0.0000 C   0  0  0  0  0  0  0  0  0  0  0  0
   10.5673   -4.3859    0.0000 C   0  0  0  0  0  0  0  0  0  0  0  0
   10.5416   -5.2072    0.0000 N   0  0  0  0  0  0  0  0  0  0  0  0
   11.3599   -4.1527    0.0000 N   0  0  0  0  0  0  0  0  0  0  0  0
   11.8236   -4.8350    0.0000 C   0  0  0  0  0  0  0  0  0  0  0  0
   11.3168   -5.4834    0.0000 C   0  0  0  0  0  0  0  0  0  0  0  0
   11.6251   -6.2443    0.0000 C   0  0  0  0  0  0  0  0  0  0  0  0
   12.4399   -6.3581    0.0000 C   0  0  0  0  0  0  0  0  0  0  0  0
   12.9455   -5.7048    0.0000 C   0  0  0  0  0  0  0  0  0  0  0  0
   12.6343   -4.9465    0.0000 C   0  0  0  0  0  0  0  0  0  0  0  0
   13.7621   -5.8126    0.0000 C   0  0  0  0  0  0  0  0  0  0  0  0
   14.1531   -6.5391    0.0000 N   0  0  0  0  0  0  0  0  0  0  0  0
   14.3323   -5.2164    0.0000 N   0  0  0  0  0  0  0  0  0  0  0  0
   15.0756   -5.5742    0.0000 C   0  0  0  0  0  0  0  0  0  0  0  0
   14.9636   -6.3896    0.0000 C   0  0  0  0  0  0  0  0  0  0  0  0
   15.6127   -6.8924    0.0000 C   0  0  0  0  0  0  0  0  0  0  0  0
   16.3742   -6.5810    0.0000 C   0  0  0  0  0  0  0  0  0  0  0  0
   16.4827   -5.7621    0.0000 C   0  0  0  0  0  0  0  0  0  0  0  0
   15.8325   -5.2628    0.0000 C   0  0  0  0  0  0  0  0  0  0  0  0
   17.2446   -5.4471    0.0000 N   0  0  0  0  0  0  0  0  0  0  0  0
   17.8983   -5.9518    0.0000 C   0  0  0  0  0  0  0  0  0  0  0  0
   18.6581   -5.6397    0.0000 C   0  0  0  0  0  0  0  0  0  0  0  0
   18.7705   -4.8221    0.0000 N   0  0  0  0  0  0  0  0  0  0  0  0
   18.1167   -4.3174    0.0000 C   0  0  0  0  0  0  0  0  0  0  0  0
   17.3505   -4.6303    0.0000 C   0  0  0  0  0  0  0  0  0  0  0  0
   19.5340   -4.5096    0.0000 C   0  0  0  0  0  0  0  0  0  0  0  0
 11 12  1  0
 28 29  2  0
 12 13  1  0
 28 30  1  0
 13 14  1  0
 30 31  1  0
 14 15  1  0
 31 32  1  0
  1 10  1  0
 32 33  1  0
  5  4  2  0
 33 34  2  0
 13 16  1  0
 33 35  1  0
  6  7  1  0
 35 36  1  0
  7  8  2  0
 36 37  1  0
 37 38  2  0
 17 18  2  0
  8  9  1  0
 38 41  1  0
 40 39  1  0
 39 37  1  0
 18 19  1  0
 19 22  2  0
 40 41  2  0
  9  5  1  0
 41 42  1  0
 21 20  2  0
 42 43  2  0
 20 17  1  0
 43 44  1  0
  8 17  1  0
 44 45  2  0
 45 40  1  0
 46 47  2  0
 21 22  1  0
 10 11  1  0
  4  1  1  0
 47 50  1  0
 49 48  1  0
 48 46  1  0
 44 46  1  0
  5  6  1  0
 49 50  2  0
  2  3  1  0
 50 51  1  0
 22 23  1  0
 51 52  2  0
 23 24  2  0
 52 53  1  0
 24 25  1  0
 53 54  2  0
 54 49  1  0
 55 56  1  0
 25 21  1  0
  3  6  2  0
 24 26  1  0
  1  2  2  0
 26 27  1  0
 10 15  1  0
 55 60  1  0
 56 57  1  0
 57 58  1  0
 58 59  1  0
 59 60  1  0
 53 55  1  0
 27 28  1  0
 58 61  1  0
M  END
> <chembl_id>
CHEMBL1822706

> <chembl_pref_name>
None

$$$$
CHEMBL554383
     RDKit          2D

 18 20  0  0  0  0  0  0  0  0999 V2000
    3.0958   -3.5417    0.0000 C   0  0  0  0  0  0  0  0  0  0  0  0
    2.3875   -3.9500    0.0000 C   0  0  0  0  0  0  0  0  0  0  0  0
    3.8083   -3.9542    0.0000 N   0  0  0  0  0  0  0  0  0  0  0  0
    3.1000   -2.7167    0.0000 C   0  0  0  0  0  0  0  0  0  0  0  0
    1.6750   -3.5417    0.0000 C   0  0  0  0  0  0  0  0  0  0  0  0
    4.5250   -3.5458    0.0000 C   0  0  0  0  0  0  0  0  0  0  0  0
    1.0708   -4.0958    0.0000 O   0  0  0  0  0  0  0  0  0  0  0  0
    2.2250   -4.7542    0.0000 C   0  0  0  0  0  0  0  0  0  0  0  0
    2.3875   -2.3000    0.0000 C   0  0  0  0  0  0  0  0  0  0  0  0
    1.6792   -2.7167    0.0000 C   0  0  0  0  0  0  0  0  0  0  0  0
    1.4083   -4.8458    0.0000 C   0  0  0  0  0  0  0  0  0  0  0  0
    3.8125   -2.3042    0.0000 C   0  0  0  0  0  0  0  0  0  0  0  0
    4.5250   -2.7208    0.0000 C   0  0  0  0  0  0  0  0  0  0  0  0
    5.2333   -3.9625    0.0000 O   0  0  0  0  0  0  0  0  0  0  0  0
    3.8000   -4.7792    0.0000 C   0  0  0  0  0  0  0  0  0  0  0  0
    0.9625   -2.3042    0.0000 C   0  0  0  0  0  0  0  0  0  0  0  0
    1.0042   -5.5625    0.0000 C   0  0  0  0  0  0  0  0  0  0  0  0
    3.8167   -1.4792    0.0000 C   0  0  0  0  0  0  0  0  0  0  0  0
  2  1  1  0
  3  1  1  0
  4  1  2  0
  5  2  2  0
  6  3  1  0
  7  5  1  0
  8  2  1  0
  9  4  1  0
 10  9  2  0
 11  8  2  0
 12  4  1  0
 13  6  1  0
 14  6  2  0
 15  3  1  0
 16 10  1  0
 17 11  1  0
 18 12  1  0
 12 13  1  0
  5 10  1  0
 11  7  1  0
M  END
> <chembl_id>
CHEMBL554383

> <chembl_pref_name>
None

$$$$
CHEMBL550256
     RDKit          2D

 30 33  0  0  0  0  0  0  0  0999 V2000
    2.0661   -2.5034    0.0000 C   0  0  0  0  0  0  0  0  0  0  0  0
    2.0661   -3.3284    0.0000 C   0  0  0  0  0  0  0  0  0  0  0  0
    2.7806   -3.7409    0.0000 C   0  0  0  0  0  0  0  0  0  0  0  0
    2.7806   -2.0909    0.0000 C   0  0  0  0  0  0  0  0  0  0  0  0
    3.4951   -2.5034    0.0000 C   0  0  0  0  0  0  0  0  0  0  0  0
    3.4951   -3.3284    0.0000 C   0  0  0  0  0  0  0  0  0  0  0  0
    4.2095   -3.7409    0.0000 O   0  0  0  0  0  0  0  0  0  0  0  0
    4.9240   -3.3284    0.0000 C   0  0  0  0  0  0  0  0  0  0  0  0
    4.9240   -2.5034    0.0000 C   0  0  0  0  0  0  0  0  0  0  0  0
    4.2095   -2.0909    0.0000 C   0  0  0  0  0  0  0  0  0  0  0  0
    5.6385   -3.7409    0.0000 C   0  0  0  0  0  0  0  0  0  0  0  0
    5.6385   -4.5659    0.0000 C   0  0  0  0  0  0  0  0  0  0  0  0
    6.3529   -4.9784    0.0000 C   0  0  0  0  0  0  0  0  0  0  0  0
    6.3529   -3.3284    0.0000 C   0  0  0  0  0  0  0  0  0  0  0  0
    5.6385   -2.0909    0.0000 O   0  0  0  0  0  0  0  0  0  0  0  0
    4.2095   -1.2659    0.0000 O   0  0  0  0  0  0  0  0  0  0  0  0
    2.7806   -1.2659    0.0000 O   0  0  0  0  0  0  0  0  0  0  0  0
    1.3516   -3.7409    0.0000 O   0  0  0  0  0  0  0  0  0  0  0  0
    7.0674   -3.7409    0.0000 C   0  0  0  0  0  0  0  0  0  0  0  0
    7.0674   -4.5659    0.0000 C   0  0  0  0  0  0  0  0  0  0  0  0
    0.6372   -3.3284    0.0000 C   0  0  0  0  0  0  0  0  0  0  0  0
   -0.0773   -3.7409    0.0000 C   0  0  0  0  0  0  0  0  0  0  0  0
   -0.0773   -4.5659    0.0000 C   0  0  0  0  0  0  0  0  0  0  0  0
   -0.7918   -4.9784    0.0000 C   0  0  0  0  0  0  0  0  0  0  0  0
   -1.5062   -4.5659    0.0000 C   0  0  0  0  0  0  0  0  0  0  0  0
   -1.5062   -3.7409    0.0000 C   0  0  0  0  0  0  0  0  0  0  0  0
   -0.7918   -3.3284    0.0000 C   0  0  0  0  0  0  0  0  0  0  0  0
   -2.2207   -4.9784    0.0000 Cl  0  0  0  0  0  0  0  0  0  0  0  0
    7.7819   -3.3284    0.0000 O   0  0  0  0  0  0  0  0  0  0  0  0
    7.7819   -4.9784    0.0000 O   0  0  0  0  0  0  0  0  0  0  0  0
 19 14  2  0
 14 11  1  0
  1  2  2  0
  9 15  1  0
  5  4  2  0
 10 16  2  0
  4  1  1  0
  4 17  1  0
  5 10  1  0
  2 18  1  0
 19 20  1  0
  6  7  1  0
  7  8  1  0
  8  9  2  0
 18 21  1  0
  9 10  1  0
 21 22  1  0
  5  6  1  0
 22 23  2  0
  8 11  1  0
 23 24  1  0
 24 25  2  0
 11 12  2  0
 25 26  1  0
  2  3  1  0
 26 27  2  0
 27 22  1  0
 12 13  1  0
 25 28  1  0
 13 20  2  0
 19 29  1  0
  3  6  2  0
 20 30  1  0
M  END
> <chembl_id>
CHEMBL550256

> <chembl_pref_name>
None

$$$$
CHEMBL1771797
     RDKit          2D

 26 28  0  0  0  0  0  0  0  0999 V2000
    9.1777  -13.1541    0.0000 C   0  0  0  0  0  0  0  0  0  0  0  0
    9.1766  -13.9815    0.0000 C   0  0  0  0  0  0  0  0  0  0  0  0
    9.8914  -14.3944    0.0000 C   0  0  0  0  0  0  0  0  0  0  0  0
    9.8896  -12.7414    0.0000 C   0  0  0  0  0  0  0  0  0  0  0  0
   10.6050  -13.1505    0.0000 C   0  0  0  0  0  0  0  0  0  0  0  0
   10.6038  -13.9836    0.0000 C   0  0  0  0  0  0  0  0  0  0  0  0
   11.3207  -14.3988    0.0000 N   0  0  0  0  0  0  0  0  0  0  0  0
   12.0433  -13.9856    0.0000 C   0  0  0  0  0  0  0  0  0  0  0  0
   12.0445  -13.1526    0.0000 C   0  0  0  0  0  0  0  0  0  0  0  0
   11.3231  -12.7327    0.0000 C   0  0  0  0  0  0  0  0  0  0  0  0
   12.7566  -14.4002    0.0000 C   0  0  0  0  0  0  0  0  0  0  0  0
    8.4618  -14.3934    0.0000 O   0  0  0  0  0  0  0  0  0  0  0  0
    7.7476  -13.9804    0.0000 C   0  0  0  0  0  0  0  0  0  0  0  0
    7.0328  -14.3923    0.0000 C   0  0  0  0  0  0  0  0  0  0  0  0
   11.3231  -11.9077    0.0000 N   0  0  0  0  0  0  0  0  0  0  0  0
   12.0376  -11.4952    0.0000 N   0  0  0  0  0  0  0  0  0  0  0  0
   12.7520  -11.9078    0.0000 S   0  0  0  0  0  0  0  0  0  0  0  0
   13.4665  -11.4953    0.0000 C   0  0  0  0  0  0  0  0  0  0  0  0
   12.1625  -12.4875    0.0000 O   0  0  0  0  0  0  0  0  0  0  0  0
   13.1583  -12.6167    0.0000 O   0  0  0  0  0  0  0  0  0  0  0  0
   14.1775  -11.9088    0.0000 C   0  0  0  0  0  0  0  0  0  0  0  0
   14.8915  -11.4971    0.0000 C   0  0  0  0  0  0  0  0  0  0  0  0
   14.8919  -10.6712    0.0000 C   0  0  0  0  0  0  0  0  0  0  0  0
   14.1725  -10.2588    0.0000 C   0  0  0  0  0  0  0  0  0  0  0  0
   13.4614  -10.6730    0.0000 C   0  0  0  0  0  0  0  0  0  0  0  0
   15.6059  -10.2578    0.0000 C   0  0  0  0  0  0  0  0  0  0  0  0
  2  3  1  0
 12 13  1  0
  3  6  2  0
 13 14  1  0
  1  2  2  0
 10 15  1  0
  5  4  2  0
 15 16  1  0
  4  1  1  0
 16 17  1  0
  5 10  1  0
 17 18  1  0
  6  7  1  0
 17 19  2  0
  7  8  2  0
 17 20  2  0
  8  9  1  0
 18 21  2  0
  9 10  2  0
 21 22  1  0
  5  6  1  0
 22 23  2  0
  8 11  1  0
 23 24  1  0
 24 25  2  0
 25 18  1  0
  2 12  1  0
 23 26  1  0
M  END
> <chembl_id>
CHEMBL1771797

> <chembl_pref_name>
None

$$$$
CHEMBL3947706
     RDKit          2D

 26 30  0  0  0  0  0  0  0  0999 V2000
   12.2674  -10.8938    0.0000 N   0  0  0  0  0  0  0  0  0  0  0  0
   11.5630  -11.3105    0.0000 N   0  0  0  0  0  0  0  0  0  0  0  0
   12.2831  -13.3453    0.0000 C   0  0  0  0  0  0  0  0  0  0  0  0
   11.5787  -13.7620    0.0000 N   0  0  0  0  0  0  0  0  0  0  0  0
   10.8691  -13.3574    0.0000 C   0  0  0  0  0  0  0  0  0  0  0  0
   10.8639  -12.5402    0.0000 C   0  0  0  0  0  0  0  0  0  0  0  0
   11.5683  -12.1277    0.0000 C   0  0  0  0  0  0  0  0  0  0  0  0
   12.2779  -12.5282    0.0000 N   0  0  0  0  0  0  0  0  0  0  0  0
   10.0838  -12.2945    0.0000 C   0  0  0  0  0  0  0  0  0  0  0  0
    9.6071  -12.9591    0.0000 C   0  0  0  0  0  0  0  0  0  0  0  0
   10.0948  -13.6168    0.0000 S   0  0  0  0  0  0  0  0  0  0  0  0
    8.7958  -12.8802    0.0000 C   0  0  0  0  0  0  0  0  0  0  0  0
    8.4570  -12.1368    0.0000 C   0  0  0  0  0  0  0  0  0  0  0  0
    8.9336  -11.4722    0.0000 C   0  0  0  0  0  0  0  0  0  0  0  0
    9.7450  -11.5510    0.0000 C   0  0  0  0  0  0  0  0  0  0  0  0
   12.2581  -10.0767    0.0000 C   0  0  0  0  0  0  0  0  0  0  0  0
   11.5484   -9.6762    0.0000 C   0  0  0  0  0  0  0  0  0  0  0  0
   12.9666   -9.6641    0.0000 C   0  0  0  0  0  0  0  0  0  0  0  0
   13.0454   -8.8528    0.0000 N   0  0  0  0  0  0  0  0  0  0  0  0
   13.8418   -8.6729    0.0000 C   0  0  0  0  0  0  0  0  0  0  0  0
   14.2544   -9.3773    0.0000 C   0  0  0  0  0  0  0  0  0  0  0  0
   13.7135   -9.9900    0.0000 N   0  0  0  0  0  0  0  0  0  0  0  0
   14.2464   -7.9633    0.0000 C   0  0  0  0  0  0  0  0  0  0  0  0
   15.0636   -7.9580    0.0000 C   0  0  0  0  0  0  0  0  0  0  0  0
   15.4761   -8.6624    0.0000 C   0  0  0  0  0  0  0  0  0  0  0  0
   15.0715   -9.3720    0.0000 C   0  0  0  0  0  0  0  0  0  0  0  0
  1  2  1  0
  3  4  1  0
  4  5  2  0
  5  6  1  0
  6  7  2  0
  7  8  1  0
  3  8  2  0
  9 10  2  0
 10 11  1  0
 12 13  1  0
 13 14  1  0
 14 15  1  0
  9 15  1  0
 10 12  1  0
  5 11  1  0
  6  9  1  0
  2  7  1  0
 16 17  1  0
 18 19  2  0
 19 20  1  0
 20 21  1  0
 21 22  1  0
 18 22  1  0
 23 24  1  0
 24 25  2  0
 25 26  1  0
 21 26  2  0
 20 23  2  0
 16 18  1  0
  1 16  2  0
M  END
> <chembl_id>
CHEMBL3947706

> <chembl_pref_name>
None

$$$$
CHEMBL4580158
     RDKit          2D

 18 20  0  0  0  0  0  0  0  0999 V2000
   30.4783   -9.8002    0.0000 S   0  0  0  0  0  0  0  0  0  0  0  0
   30.9772   -9.1528    0.0000 C   0  0  0  0  0  0  0  0  0  0  0  0
   30.5130   -8.4772    0.0000 N   0  0  0  0  0  0  0  0  0  0  0  0
   29.7079   -9.5277    0.0000 C   0  0  0  0  0  0  0  0  0  0  0  0
   29.7311   -8.7131    0.0000 C   0  0  0  0  0  0  0  0  0  0  0  0
   29.0383   -8.2875    0.0000 C   0  0  0  0  0  0  0  0  0  0  0  0
   28.3219   -8.6753    0.0000 C   0  0  0  0  0  0  0  0  0  0  0  0
   28.3025   -9.4932    0.0000 N   0  0  0  0  0  0  0  0  0  0  0  0
   28.9960   -9.9151    0.0000 C   0  0  0  0  0  0  0  0  0  0  0  0
   31.7909   -9.1765    0.0000 C   0  0  0  0  0  0  0  0  0  0  0  0
   32.1794   -9.8967    0.0000 C   0  0  0  0  0  0  0  0  0  0  0  0
   32.9955   -9.9193    0.0000 C   0  0  0  0  0  0  0  0  0  0  0  0
   33.4241   -9.2224    0.0000 C   0  0  0  0  0  0  0  0  0  0  0  0
   33.0306   -8.5014    0.0000 C   0  0  0  0  0  0  0  0  0  0  0  0
   32.2157   -8.4823    0.0000 C   0  0  0  0  0  0  0  0  0  0  0  0
   31.8246   -7.7648    0.0000 O   0  0  0  0  0  0  0  0  0  0  0  0
   32.2504   -7.0673    0.0000 C   0  0  0  0  0  0  0  0  0  0  0  0
   28.9763  -10.7321    0.0000 N   0  0  0  0  0  0  0  0  0  0  0  0
  4  1  1  0
  1  2  1  0
  2  3  2  0
  3  5  1  0
  4  5  2  0
  5  6  1  0
  6  7  2  0
  7  8  1  0
  8  9  2  0
  9  4  1  0
 10 11  2  0
 11 12  1  0
 12 13  2  0
 13 14  1  0
 14 15  2  0
 15 10  1  0
  2 10  1  0
 15 16  1  0
 16 17  1  0
  9 18  1  0
M  END
> <chembl_id>
CHEMBL4580158

> <chembl_pref_name>
None

$$$$
CHEMBL1813568
     RDKit          2D

 60 64  0  0  0  0  0  0  0  0999 V2000
   11.0068   -8.3628    0.0000 O   0  0  0  0  0  0  0  0  0  0  0  0
   10.2039   -8.1494    0.0000 S   0  0  0  0  0  0  0  0  0  0  0  0
   10.4219   -8.9516    0.0000 O   0  0  0  0  0  0  0  0  0  0  0  0
    6.9570   -4.9999    0.0000 O   0  0  0  0  0  0  0  0  0  0  0  0
    6.2424   -4.5786    0.0000 C   0  0  0  0  0  0  0  0  0  0  0  0
    4.8237   -3.7511    0.0000 N   0  0  0  0  0  0  0  0  0  0  0  0
    4.8262   -4.5795    0.0000 C   0  0  0  0  0  0  0  0  0  0  0  0
    5.5334   -4.9869    0.0000 C   0  0  0  0  0  0  0  0  0  0  0  0
    5.5411   -3.3351    0.0000 C   0  0  0  0  0  0  0  0  0  0  0  0
    6.2472   -3.7551    0.0000 C   0  0  0  0  0  0  0  0  0  0  0  0
    6.9586   -3.3470    0.0000 C   0  0  0  0  0  0  0  0  0  0  0  0
    6.9641   -2.5289    0.0000 C   0  0  0  0  0  0  0  0  0  0  0  0
    6.2452   -2.1157    0.0000 C   0  0  0  0  0  0  0  0  0  0  0  0
    5.5443   -2.5214    0.0000 C   0  0  0  0  0  0  0  0  0  0  0  0
    6.2470   -1.2928    0.0000 O   0  0  0  0  0  0  0  0  0  0  0  0
    6.9620   -0.8793    0.0000 C   0  0  0  0  0  0  0  0  0  0  0  0
    4.1115   -4.9910    0.0000 C   0  0  0  0  0  0  0  0  0  0  0  0
    3.3959   -4.5739    0.0000 C   0  0  0  0  0  0  0  0  0  0  0  0
    2.6824   -4.9903    0.0000 C   0  0  0  0  0  0  0  0  0  0  0  0
    2.6813   -5.8153    0.0000 C   0  0  0  0  0  0  0  0  0  0  0  0
    3.3973   -6.2263    0.0000 C   0  0  0  0  0  0  0  0  0  0  0  0
    4.1126   -5.8175    0.0000 C   0  0  0  0  0  0  0  0  0  0  0  0
    6.9540   -5.8228    0.0000 C   0  0  0  0  0  0  0  0  0  0  0  0
    6.2316   -6.2316    0.0000 C   0  0  0  0  0  0  0  0  0  0  0  0
    6.2342   -7.0527    0.0000 C   0  0  0  0  0  0  0  0  0  0  0  0
    6.9454   -7.4679    0.0000 C   0  0  0  0  0  0  0  0  0  0  0  0
    7.6598   -7.0543    0.0000 C   0  0  0  0  0  0  0  0  0  0  0  0
    7.6619   -6.2321    0.0000 C   0  0  0  0  0  0  0  0  0  0  0  0
    6.9383   -8.2908    0.0000 C   0  0  0  0  0  0  0  0  0  0  0  0
    5.5108   -8.2894    0.0000 C   0  0  0  0  0  0  0  0  0  0  0  0
    4.7991   -8.6947    0.0000 C   0  0  0  0  0  0  0  0  0  0  0  0
    5.5136   -7.4622    0.0000 O   0  0  0  0  0  0  0  0  0  0  0  0
    4.7964   -9.5219    0.0000 C   0  0  0  0  0  0  0  0  0  0  0  0
    4.0781   -9.9338    0.0000 C   0  0  0  0  0  0  0  0  0  0  0  0
    5.5033   -9.9352    0.0000 C   0  0  0  0  0  0  0  0  0  0  0  0
    4.7862  -10.3471    0.0000 C   0  0  0  0  0  0  0  0  0  0  0  0
    7.6495   -8.7084    0.0000 C   0  0  0  0  0  0  0  0  0  0  0  0
    8.3635   -8.2964    0.0000 O   0  0  0  0  0  0  0  0  0  0  0  0
    8.3602   -9.9488    0.0000 C   0  0  0  0  0  0  0  0  0  0  0  0
    8.3532  -10.7716    0.0000 C   0  0  0  0  0  0  0  0  0  0  0  0
    9.0808   -9.5368    0.0000 C   0  0  0  0  0  0  0  0  0  0  0  0
    9.0733  -11.1892    0.0000 C   0  0  0  0  0  0  0  0  0  0  0  0
    9.0705  -12.0121    0.0000 C   0  0  0  0  0  0  0  0  0  0  0  0
    9.7920   -9.9501    0.0000 O   0  0  0  0  0  0  0  0  0  0  0  0
    8.1365   -5.5611    0.0000 C   0  0  0  0  0  0  0  0  0  0  0  0
    8.9719   -5.5606    0.0000 C   0  0  0  0  0  0  0  0  0  0  0  0
    9.3897   -6.2796    0.0000 C   0  0  0  0  0  0  0  0  0  0  0  0
   10.2215   -6.2750    0.0000 C   0  0  0  0  0  0  0  0  0  0  0  0
   10.6358   -6.9998    0.0000 C   0  0  0  0  0  0  0  0  0  0  0  0
    3.3560   -8.7052    0.0000 C   0  0  0  0  0  0  0  0  0  0  0  0
    3.3559   -9.5475    0.0000 O   0  0  0  0  0  0  0  0  0  0  0  0
    2.6227   -8.2846    0.0000 O   0  0  0  0  0  0  0  0  0  0  0  0
    1.8892   -8.7041    0.0000 C   0  0  0  0  0  0  0  0  0  0  0  0
    1.1596   -8.2832    0.0000 C   0  0  0  0  0  0  0  0  0  0  0  0
    1.8884   -9.5415    0.0000 C   0  0  0  0  0  0  0  0  0  0  0  0
    1.1675   -9.1321    0.0000 C   0  0  0  0  0  0  0  0  0  0  0  0
    6.2266   -8.7004    0.0000 N   0  0  0  0  0  0  0  0  0  0  0  0
    4.0856   -8.2838    0.0000 N   0  0  0  0  0  0  0  0  0  0  0  0
    7.6490   -9.5312    0.0000 N   0  0  0  0  0  0  0  0  0  0  0  0
    9.0724   -8.4361    0.0000 N   0  0  0  0  0  0  0  0  0  0  0  0
  5 10  2  0
  9  6  2  0
  6  7  1  0
  7  8  2  0
  8  5  1  0
  9 10  1  0
 10 11  1  0
 11 12  2  0
 12 13  1  0
 13 14  2  0
 14  9  1  0
 13 15  1  0
 15 16  1  0
  7 17  1  0
 17 18  2  0
 18 19  1  0
 19 20  2  0
 20 21  1  0
 21 22  2  0
 22 17  1  0
  4 23  1  0
 23 24  2  0
 24 25  1  0
 25 26  2  0
 26 27  1  0
 27 28  2  0
 28 23  1  0
 29 26  1  0
 29 57  1  6
 57 30  1  0
 30 31  1  0
 30 32  2  0
 31 58  1  0
 31 33  1  6
 33 34  1  0
 33 35  1  0
 33 36  1  0
 29 37  1  0
 37 59  1  0
 37 38  2  0
 59 39  1  0
 39 40  1  6
 39 41  1  0
 40 42  1  0
 42 43  1  0
 41 44  2  0
 41 60  1  0
 60  2  1  0
 28 45  1  0
 45 46  2  0
 46 47  1  0
 47 48  1  0
 48 49  1  0
  2 49  1  0
 58 50  1  0
 50 51  2  0
 50 52  1  0
 52 53  1  0
 53 54  1  0
 53 55  1  0
 53 56  1  0
  2  1  2  0
  3  2  2  0
  4  5  1  0
M  END
> <chembl_id>
CHEMBL1813568

> <chembl_pref_name>
None

$$$$
CHEMBL4076162
     RDKit          2D

 38 40  0  0  0  0  0  0  0  0999 V2000
   21.4162   -4.7835    0.0000 O   0  0  0  0  0  0  0  0  0  0  0  0
   21.0117   -4.0777    0.0000 S   0  0  0  0  0  0  0  0  0  0  0  0
   20.6028   -4.7809    0.0000 O   0  0  0  0  0  0  0  0  0  0  0  0
   29.0887   -1.7376    0.0000 O   0  0  0  0  0  0  0  0  0  0  0  0
   29.5014   -2.4474    0.0000 S   0  0  0  0  0  0  0  0  0  0  0  0
   29.9098   -1.7351    0.0000 O   0  0  0  0  0  0  0  0  0  0  0  0
   24.5529   -2.8478    0.0000 C   0  0  0  0  0  0  0  0  0  0  0  0
   24.5529   -3.6650    0.0000 N   0  0  0  0  0  0  0  0  0  0  0  0
   25.2582   -4.0694    0.0000 C   0  0  0  0  0  0  0  0  0  0  0  0
   25.9634   -3.6650    0.0000 C   0  0  0  0  0  0  0  0  0  0  0  0
   25.9634   -2.8478    0.0000 N   0  0  0  0  0  0  0  0  0  0  0  0
   25.2582   -2.4351    0.0000 C   0  0  0  0  0  0  0  0  0  0  0  0
   26.6723   -2.4413    0.0000 C   0  0  0  0  0  0  0  0  0  0  0  0
   27.3789   -2.8519    0.0000 C   0  0  0  0  0  0  0  0  0  0  0  0
   28.0878   -2.4454    0.0000 C   0  0  0  0  0  0  0  0  0  0  0  0
   28.7943   -2.8561    0.0000 N   0  0  0  0  0  0  0  0  0  0  0  0
   30.2097   -2.8602    0.0000 C   0  0  0  0  0  0  0  0  0  0  0  0
   30.2020   -3.6784    0.0000 C   0  0  0  0  0  0  0  0  0  0  0  0
   30.9077   -4.0890    0.0000 C   0  0  0  0  0  0  0  0  0  0  0  0
   31.6176   -3.6824    0.0000 C   0  0  0  0  0  0  0  0  0  0  0  0
   31.6174   -2.8610    0.0000 C   0  0  0  0  0  0  0  0  0  0  0  0
   30.9111   -2.4541    0.0000 C   0  0  0  0  0  0  0  0  0  0  0  0
   23.8458   -4.0746    0.0000 C   0  0  0  0  0  0  0  0  0  0  0  0
   23.1375   -3.6670    0.0000 C   0  0  0  0  0  0  0  0  0  0  0  0
   22.4304   -4.0767    0.0000 C   0  0  0  0  0  0  0  0  0  0  0  0
   21.7221   -3.6691    0.0000 N   0  0  0  0  0  0  0  0  0  0  0  0
   20.3066   -3.6711    0.0000 C   0  0  0  0  0  0  0  0  0  0  0  0
   20.3048   -2.8549    0.0000 C   0  0  0  0  0  0  0  0  0  0  0  0
   19.5973   -2.4474    0.0000 C   0  0  0  0  0  0  0  0  0  0  0  0
   18.8915   -2.8571    0.0000 C   0  0  0  0  0  0  0  0  0  0  0  0
   18.8959   -3.6785    0.0000 C   0  0  0  0  0  0  0  0  0  0  0  0
   19.6011   -4.0823    0.0000 C   0  0  0  0  0  0  0  0  0  0  0  0
   18.1784   -2.4486    0.0000 N   0  0  0  0  0  0  0  0  0  0  0  0
   17.4723   -2.8599    0.0000 O   0  0  0  0  0  0  0  0  0  0  0  0
   18.1753   -1.6314    0.0000 O   0  0  0  0  0  0  0  0  0  0  0  0
   32.3260   -4.0940    0.0000 N   0  0  0  0  0  0  0  0  0  0  0  0
   33.0343   -3.6865    0.0000 O   0  0  0  0  0  0  0  0  0  0  0  0
   32.3247   -4.9112    0.0000 O   0  0  0  0  0  0  0  0  0  0  0  0
  2  1  2  0
  3  2  2  0
  5  4  2  0
  6  5  2  0
  7  8  1  0
  7 12  1  0
  8  9  1  0
  9 10  1  0
 10 11  1  0
 11 12  1  0
 11 13  1  0
 13 14  1  0
 14 15  1  0
 15 16  1  0
 16  5  1  0
  5 17  1  0
 17 18  2  0
 18 19  1  0
 19 20  2  0
 20 21  1  0
 21 22  2  0
 22 17  1  0
  8 23  1  0
 23 24  1  0
 24 25  1  0
 25 26  1  0
 26  2  1  0
  2 27  1  0
 27 28  2  0
 28 29  1  0
 29 30  2  0
 30 31  1  0
 31 32  2  0
 32 27  1  0
 33 34  2  0
 33 35  1  0
 30 33  1  0
 36 37  2  0
 36 38  1  0
 20 36  1  0
M  CHG  4  33   1  35  -1  36   1  38  -1
M  END
> <chembl_id>
CHEMBL4076162

> <chembl_pref_name>
None

$$$$
CHEMBL3929888
     RDKit          2D

 23 26  0  0  0  0  0  0  0  0999 V2000
   26.0386   -9.6946    0.0000 N   0  0  0  0  0  0  0  0  0  0  0  0
   25.3265  -10.0981    0.0000 N   0  0  0  0  0  0  0  0  0  0  0  0
   26.0249  -12.1462    0.0000 C   0  0  0  0  0  0  0  0  0  0  0  0
   25.3129  -12.5496    0.0000 N   0  0  0  0  0  0  0  0  0  0  0  0
   24.6068  -12.1359    0.0000 C   0  0  0  0  0  0  0  0  0  0  0  0
   24.6127  -11.3187    0.0000 C   0  0  0  0  0  0  0  0  0  0  0  0
   25.3206  -10.9153    0.0000 C   0  0  0  0  0  0  0  0  0  0  0  0
   26.0267  -11.3290    0.0000 N   0  0  0  0  0  0  0  0  0  0  0  0
   23.8373  -11.0626    0.0000 C   0  0  0  0  0  0  0  0  0  0  0  0
   23.3524  -11.7223    0.0000 C   0  0  0  0  0  0  0  0  0  0  0  0
   23.8319  -12.3849    0.0000 S   0  0  0  0  0  0  0  0  0  0  0  0
   22.5426  -11.6324    0.0000 C   0  0  0  0  0  0  0  0  0  0  0  0
   22.2136  -10.8869    0.0000 C   0  0  0  0  0  0  0  0  0  0  0  0
   22.6944  -10.2271    0.0000 C   0  0  0  0  0  0  0  0  0  0  0  0
   23.5083  -10.3170    0.0000 C   0  0  0  0  0  0  0  0  0  0  0  0
   26.0404   -8.8774    0.0000 C   0  0  0  0  0  0  0  0  0  0  0  0
   25.3342   -8.4637    0.0000 C   0  0  0  0  0  0  0  0  0  0  0  0
   26.7524   -8.4699    0.0000 C   0  0  0  0  0  0  0  0  0  0  0  0
   27.4544   -8.8836    0.0000 C   0  0  0  0  0  0  0  0  0  0  0  0
   26.7542   -7.6527    0.0000 N   0  0  0  0  0  0  0  0  0  0  0  0
   28.1664   -8.4760    0.0000 N   0  0  0  0  0  0  0  0  0  0  0  0
   28.1682   -7.6588    0.0000 C   0  0  0  0  0  0  0  0  0  0  0  0
   27.4621   -7.2492    0.0000 C   0  0  0  0  0  0  0  0  0  0  0  0
  1  2  1  0
  3  4  1  0
  4  5  2  0
  5  6  1  0
  6  7  2  0
  7  8  1  0
  3  8  2  0
  9 10  2  0
 10 11  1  0
 12 13  1  0
 13 14  1  0
 14 15  1  0
  9 15  1  0
 10 12  1  0
  5 11  1  0
  6  9  1  0
  2  7  1  0
 16 17  1  0
 18 19  1  0
 18 20  2  0
 19 21  2  0
 21 22  1  0
 22 23  2  0
 20 23  1  0
 16 18  1  0
  1 16  2  0
M  END
> <chembl_id>
CHEMBL3929888

> <chembl_pref_name>
None

$$$$
CHEMBL4085744
     RDKit          2D

 40 42  0  0  0  0  0  0  0  0999 V2000
   21.6349  -16.1086    0.0000 O   0  0  0  0  0  0  0  0  0  0  0  0
   21.2305  -15.4028    0.0000 S   0  0  0  0  0  0  0  0  0  0  0  0
   20.8215  -16.1060    0.0000 O   0  0  0  0  0  0  0  0  0  0  0  0
   29.3075  -13.0627    0.0000 O   0  0  0  0  0  0  0  0  0  0  0  0
   29.7202  -13.7726    0.0000 S   0  0  0  0  0  0  0  0  0  0  0  0
   30.1286  -13.0602    0.0000 O   0  0  0  0  0  0  0  0  0  0  0  0
   24.7716  -14.1729    0.0000 C   0  0  0  0  0  0  0  0  0  0  0  0
   24.7716  -14.9901    0.0000 N   0  0  0  0  0  0  0  0  0  0  0  0
   25.4769  -15.3946    0.0000 C   0  0  0  0  0  0  0  0  0  0  0  0
   26.1822  -14.9901    0.0000 C   0  0  0  0  0  0  0  0  0  0  0  0
   26.1822  -14.1729    0.0000 N   0  0  0  0  0  0  0  0  0  0  0  0
   25.4769  -13.7602    0.0000 C   0  0  0  0  0  0  0  0  0  0  0  0
   26.8911  -13.7664    0.0000 C   0  0  0  0  0  0  0  0  0  0  0  0
   27.5976  -14.1771    0.0000 C   0  0  0  0  0  0  0  0  0  0  0  0
   28.3065  -13.7705    0.0000 C   0  0  0  0  0  0  0  0  0  0  0  0
   29.0130  -14.1812    0.0000 N   0  0  0  0  0  0  0  0  0  0  0  0
   30.4284  -14.1853    0.0000 C   0  0  0  0  0  0  0  0  0  0  0  0
   30.4208  -15.0035    0.0000 C   0  0  0  0  0  0  0  0  0  0  0  0
   31.1265  -15.4141    0.0000 C   0  0  0  0  0  0  0  0  0  0  0  0
   31.8363  -15.0075    0.0000 C   0  0  0  0  0  0  0  0  0  0  0  0
   31.8361  -14.1861    0.0000 C   0  0  0  0  0  0  0  0  0  0  0  0
   31.1299  -13.7792    0.0000 C   0  0  0  0  0  0  0  0  0  0  0  0
   24.0645  -15.3997    0.0000 C   0  0  0  0  0  0  0  0  0  0  0  0
   23.3562  -14.9921    0.0000 C   0  0  0  0  0  0  0  0  0  0  0  0
   22.6491  -15.4018    0.0000 C   0  0  0  0  0  0  0  0  0  0  0  0
   21.9408  -14.9942    0.0000 N   0  0  0  0  0  0  0  0  0  0  0  0
   20.5254  -14.9963    0.0000 C   0  0  0  0  0  0  0  0  0  0  0  0
   20.5235  -14.1800    0.0000 C   0  0  0  0  0  0  0  0  0  0  0  0
   19.8160  -13.7725    0.0000 C   0  0  0  0  0  0  0  0  0  0  0  0
   19.1102  -14.1822    0.0000 C   0  0  0  0  0  0  0  0  0  0  0  0
   19.1146  -15.0036    0.0000 C   0  0  0  0  0  0  0  0  0  0  0  0
   19.8198  -15.4074    0.0000 C   0  0  0  0  0  0  0  0  0  0  0  0
   19.8229  -16.2246    0.0000 O   0  0  0  0  0  0  0  0  0  0  0  0
   19.1167  -16.6359    0.0000 C   0  0  0  0  0  0  0  0  0  0  0  0
   19.8147  -12.9553    0.0000 O   0  0  0  0  0  0  0  0  0  0  0  0
   20.5217  -12.5456    0.0000 C   0  0  0  0  0  0  0  0  0  0  0  0
   31.1290  -12.9620    0.0000 O   0  0  0  0  0  0  0  0  0  0  0  0
   31.8362  -12.5527    0.0000 C   0  0  0  0  0  0  0  0  0  0  0  0
   31.1237  -16.2313    0.0000 O   0  0  0  0  0  0  0  0  0  0  0  0
   30.4146  -16.6375    0.0000 C   0  0  0  0  0  0  0  0  0  0  0  0
  2  1  2  0
  3  2  2  0
  5  4  2  0
  6  5  2  0
  7  8  1  0
  7 12  1  0
  8  9  1  0
  9 10  1  0
 10 11  1  0
 11 12  1  0
 11 13  1  0
 13 14  1  0
 14 15  1  0
 15 16  1  0
 16  5  1  0
  5 17  1  0
 17 18  2  0
 18 19  1  0
 19 20  2  0
 20 21  1  0
 21 22  2  0
 22 17  1  0
  8 23  1  0
 23 24  1  0
 24 25  1  0
 25 26  1  0
 26  2  1  0
  2 27  1  0
 27 28  2  0
 28 29  1  0
 29 30  2  0
 30 31  1  0
 31 32  2  0
 32 27  1  0
 32 33  1  0
 33 34  1  0
 29 35  1  0
 35 36  1  0
 22 37  1  0
 37 38  1  0
 19 39  1  0
 39 40  1  0
M  END
> <chembl_id>
CHEMBL4085744

> <chembl_pref_name>
None

$$$$
CHEMBL4068498
     RDKit          2D

 38 40  0  0  0  0  0  0  0  0999 V2000
   11.7213  -20.1987    0.0000 O   0  0  0  0  0  0  0  0  0  0  0  0
   11.3169  -19.4929    0.0000 S   0  0  0  0  0  0  0  0  0  0  0  0
   10.9079  -20.1961    0.0000 O   0  0  0  0  0  0  0  0  0  0  0  0
    3.8342  -19.5920    0.0000 O   0  0  0  0  0  0  0  0  0  0  0  0
    4.2469  -20.3018    0.0000 S   0  0  0  0  0  0  0  0  0  0  0  0
    4.6553  -19.5895    0.0000 O   0  0  0  0  0  0  0  0  0  0  0  0
    7.0782  -19.4846    0.0000 C   0  0  0  0  0  0  0  0  0  0  0  0
    7.0782  -20.3018    0.0000 N   0  0  0  0  0  0  0  0  0  0  0  0
    7.7835  -20.7063    0.0000 C   0  0  0  0  0  0  0  0  0  0  0  0
    8.4888  -20.3018    0.0000 C   0  0  0  0  0  0  0  0  0  0  0  0
    8.4888  -19.4846    0.0000 N   0  0  0  0  0  0  0  0  0  0  0  0
    7.7835  -19.0719    0.0000 C   0  0  0  0  0  0  0  0  0  0  0  0
    9.1977  -19.0781    0.0000 C   0  0  0  0  0  0  0  0  0  0  0  0
    9.9042  -19.4888    0.0000 C   0  0  0  0  0  0  0  0  0  0  0  0
   10.6131  -19.0823    0.0000 N   0  0  0  0  0  0  0  0  0  0  0  0
    6.3711  -20.7115    0.0000 C   0  0  0  0  0  0  0  0  0  0  0  0
    5.6628  -20.3039    0.0000 C   0  0  0  0  0  0  0  0  0  0  0  0
    4.9557  -20.7135    0.0000 N   0  0  0  0  0  0  0  0  0  0  0  0
    3.5403  -20.7156    0.0000 C   0  0  0  0  0  0  0  0  0  0  0  0
    2.8328  -20.3064    0.0000 C   0  0  0  0  0  0  0  0  0  0  0  0
    2.1262  -20.7153    0.0000 C   0  0  0  0  0  0  0  0  0  0  0  0
    2.1269  -21.5334    0.0000 C   0  0  0  0  0  0  0  0  0  0  0  0
    2.8402  -21.9408    0.0000 C   0  0  0  0  0  0  0  0  0  0  0  0
    3.5439  -21.5295    0.0000 C   0  0  0  0  0  0  0  0  0  0  0  0
   12.0285  -19.0864    0.0000 C   0  0  0  0  0  0  0  0  0  0  0  0
   12.7318  -19.5004    0.0000 C   0  0  0  0  0  0  0  0  0  0  0  0
   13.4402  -19.0946    0.0000 C   0  0  0  0  0  0  0  0  0  0  0  0
   13.4431  -18.2765    0.0000 C   0  0  0  0  0  0  0  0  0  0  0  0
   12.7316  -17.8660    0.0000 C   0  0  0  0  0  0  0  0  0  0  0  0
   12.0261  -18.2742    0.0000 C   0  0  0  0  0  0  0  0  0  0  0  0
    2.8327  -19.4892    0.0000 O   0  0  0  0  0  0  0  0  0  0  0  0
    3.5404  -19.0805    0.0000 C   0  0  0  0  0  0  0  0  0  0  0  0
    2.8443  -22.7579    0.0000 O   0  0  0  0  0  0  0  0  0  0  0  0
    2.1386  -23.1701    0.0000 C   0  0  0  0  0  0  0  0  0  0  0  0
   12.7270  -20.3176    0.0000 O   0  0  0  0  0  0  0  0  0  0  0  0
   12.0169  -20.7220    0.0000 C   0  0  0  0  0  0  0  0  0  0  0  0
   12.7311  -17.0488    0.0000 O   0  0  0  0  0  0  0  0  0  0  0  0
   13.4386  -16.6398    0.0000 C   0  0  0  0  0  0  0  0  0  0  0  0
  2  1  2  0
  3  2  2  0
  5  4  2  0
  6  5  2  0
  7  8  1  0
  7 12  1  0
  8  9  1  0
  9 10  1  0
 10 11  1  0
 11 12  1  0
 11 13  1  0
 13 14  1  0
 14 15  1  0
  8 16  1  0
 16 17  1  0
 17 18  1  0
 18  5  1  0
  5 19  1  0
 19 20  2  0
 20 21  1  0
 21 22  2  0
 22 23  1  0
 23 24  2  0
 24 19  1  0
 15  2  1  0
  2 25  1  0
 25 26  2  0
 26 27  1  0
 27 28  2  0
 28 29  1  0
 29 30  2  0
 30 25  1  0
 20 31  1  0
 31 32  1  0
 23 33  1  0
 33 34  1  0
 26 35  1  0
 35 36  1  0
 29 37  1  0
 37 38  1  0
M  END
> <chembl_id>
CHEMBL4068498

> <chembl_pref_name>
None

$$$$
CHEMBL4085961
     RDKit          2D

 33 35  0  0  0  0  0  0  0  0999 V2000
   12.4460  -21.1879    0.0000 O   0  0  0  0  0  0  0  0  0  0  0  0
   12.8627  -21.9045    0.0000 S   0  0  0  0  0  0  0  0  0  0  0  0
   13.2750  -21.1853    0.0000 O   0  0  0  0  0  0  0  0  0  0  0  0
    4.5917  -19.9586    0.0000 O   0  0  0  0  0  0  0  0  0  0  0  0
    5.0084  -20.6753    0.0000 S   0  0  0  0  0  0  0  0  0  0  0  0
    5.4207  -19.9561    0.0000 O   0  0  0  0  0  0  0  0  0  0  0  0
    8.5835  -21.0794    0.0000 N   0  0  0  0  0  0  0  0  0  0  0  0
    8.5835  -21.9045    0.0000 C   0  0  0  0  0  0  0  0  0  0  0  0
    9.2955  -22.3128    0.0000 C   0  0  0  0  0  0  0  0  0  0  0  0
   10.0075  -21.9045    0.0000 N   0  0  0  0  0  0  0  0  0  0  0  0
   10.0075  -21.0794    0.0000 C   0  0  0  0  0  0  0  0  0  0  0  0
    9.2955  -20.6628    0.0000 C   0  0  0  0  0  0  0  0  0  0  0  0
    7.8678  -20.6690    0.0000 C   0  0  0  0  0  0  0  0  0  0  0  0
    7.1545  -21.0837    0.0000 C   0  0  0  0  0  0  0  0  0  0  0  0
    6.4388  -20.6733    0.0000 C   0  0  0  0  0  0  0  0  0  0  0  0
    5.7256  -21.0878    0.0000 N   0  0  0  0  0  0  0  0  0  0  0  0
    4.2966  -21.0921    0.0000 C   0  0  0  0  0  0  0  0  0  0  0  0
   10.7214  -22.3181    0.0000 C   0  0  0  0  0  0  0  0  0  0  0  0
   11.4365  -21.9066    0.0000 C   0  0  0  0  0  0  0  0  0  0  0  0
   12.1504  -22.3201    0.0000 N   0  0  0  0  0  0  0  0  0  0  0  0
   13.5793  -22.3222    0.0000 C   0  0  0  0  0  0  0  0  0  0  0  0
    3.5818  -20.6781    0.0000 C   0  0  0  0  0  0  0  0  0  0  0  0
    2.8690  -21.0921    0.0000 C   0  0  0  0  0  0  0  0  0  0  0  0
    2.8709  -21.9179    0.0000 C   0  0  0  0  0  0  0  0  0  0  0  0
    3.5916  -22.3282    0.0000 C   0  0  0  0  0  0  0  0  0  0  0  0
    4.3015  -21.9119    0.0000 C   0  0  0  0  0  0  0  0  0  0  0  0
   13.5754  -23.1472    0.0000 C   0  0  0  0  0  0  0  0  0  0  0  0
   14.2885  -23.5608    0.0000 C   0  0  0  0  0  0  0  0  0  0  0  0
   15.0045  -23.1492    0.0000 C   0  0  0  0  0  0  0  0  0  0  0  0
   15.0030  -22.3199    0.0000 C   0  0  0  0  0  0  0  0  0  0  0  0
   14.2895  -21.9102    0.0000 C   0  0  0  0  0  0  0  0  0  0  0  0
    2.1583  -22.3334    0.0000 Cl  0  0  0  0  0  0  0  0  0  0  0  0
   15.7189  -23.5618    0.0000 Cl  0  0  0  0  0  0  0  0  0  0  0  0
  2  1  2  0
  3  2  2  0
  5  4  2  0
  6  5  2  0
  7  8  1  0
  7 12  1  0
  8  9  1  0
  9 10  1  0
 10 11  1  0
 11 12  1  0
  7 13  1  0
 13 14  1  0
 14 15  1  0
 15 16  1  0
 16  5  1  0
  5 17  1  0
 10 18  1  0
 18 19  1  0
 19 20  1  0
 20  2  1  0
  2 21  1  0
 17 22  2  0
 22 23  1  0
 23 24  2  0
 24 25  1  0
 25 26  2  0
 26 17  1  0
 21 27  2  0
 27 28  1  0
 28 29  2  0
 29 30  1  0
 30 31  2  0
 31 21  1  0
 24 32  1  0
 29 33  1  0
M  END
> <chembl_id>
CHEMBL4085961

> <chembl_pref_name>
None

$$$$
CHEMBL4076012
     RDKit          2D

 42 44  0  0  0  0  0  0  0  0999 V2000
   13.5084  -11.0032    0.0000 O   0  0  0  0  0  0  0  0  0  0  0  0
   13.1040  -10.2974    0.0000 S   0  0  0  0  0  0  0  0  0  0  0  0
   12.6950  -11.0006    0.0000 O   0  0  0  0  0  0  0  0  0  0  0  0
    4.2056   -7.9573    0.0000 O   0  0  0  0  0  0  0  0  0  0  0  0
    4.6184   -8.6672    0.0000 S   0  0  0  0  0  0  0  0  0  0  0  0
    5.0268   -7.9548    0.0000 O   0  0  0  0  0  0  0  0  0  0  0  0
    8.1595   -9.0675    0.0000 N   0  0  0  0  0  0  0  0  0  0  0  0
    8.1595   -9.8847    0.0000 C   0  0  0  0  0  0  0  0  0  0  0  0
    8.8648  -10.2892    0.0000 C   0  0  0  0  0  0  0  0  0  0  0  0
    9.5701   -9.8847    0.0000 N   0  0  0  0  0  0  0  0  0  0  0  0
    9.5701   -9.0675    0.0000 C   0  0  0  0  0  0  0  0  0  0  0  0
    8.8648   -8.6548    0.0000 C   0  0  0  0  0  0  0  0  0  0  0  0
   10.2772  -10.2943    0.0000 C   0  0  0  0  0  0  0  0  0  0  0  0
   10.2760  -11.1115    0.0000 O   0  0  0  0  0  0  0  0  0  0  0  0
   10.9855   -9.8868    0.0000 C   0  0  0  0  0  0  0  0  0  0  0  0
   11.6926  -10.2964    0.0000 C   0  0  0  0  0  0  0  0  0  0  0  0
   12.4009   -9.8888    0.0000 N   0  0  0  0  0  0  0  0  0  0  0  0
    7.4506   -8.6610    0.0000 C   0  0  0  0  0  0  0  0  0  0  0  0
    7.4482   -7.8438    0.0000 O   0  0  0  0  0  0  0  0  0  0  0  0
    6.7441   -9.0717    0.0000 C   0  0  0  0  0  0  0  0  0  0  0  0
    6.0352   -8.6651    0.0000 C   0  0  0  0  0  0  0  0  0  0  0  0
    5.3287   -9.0758    0.0000 N   0  0  0  0  0  0  0  0  0  0  0  0
    3.9133   -9.0800    0.0000 C   0  0  0  0  0  0  0  0  0  0  0  0
   13.8163   -9.8909    0.0000 C   0  0  0  0  0  0  0  0  0  0  0  0
    3.2041   -8.6723    0.0000 C   0  0  0  0  0  0  0  0  0  0  0  0
    2.4995   -9.0844    0.0000 C   0  0  0  0  0  0  0  0  0  0  0  0
    2.5040   -9.9022    0.0000 C   0  0  0  0  0  0  0  0  0  0  0  0
    3.2190  -10.3063    0.0000 C   0  0  0  0  0  0  0  0  0  0  0  0
    3.9207   -9.8918    0.0000 C   0  0  0  0  0  0  0  0  0  0  0  0
   14.5211  -10.3086    0.0000 C   0  0  0  0  0  0  0  0  0  0  0  0
   15.2330   -9.9027    0.0000 C   0  0  0  0  0  0  0  0  0  0  0  0
   15.2376   -9.0816    0.0000 C   0  0  0  0  0  0  0  0  0  0  0  0
   14.5243   -8.6681    0.0000 C   0  0  0  0  0  0  0  0  0  0  0  0
   13.8153   -9.0763    0.0000 C   0  0  0  0  0  0  0  0  0  0  0  0
    3.2011   -7.8551    0.0000 O   0  0  0  0  0  0  0  0  0  0  0  0
    3.9072   -7.4438    0.0000 C   0  0  0  0  0  0  0  0  0  0  0  0
    3.2268  -11.1234    0.0000 O   0  0  0  0  0  0  0  0  0  0  0  0
    2.5231  -11.5388    0.0000 C   0  0  0  0  0  0  0  0  0  0  0  0
   14.5142  -11.1258    0.0000 O   0  0  0  0  0  0  0  0  0  0  0  0
   13.8031  -11.5284    0.0000 C   0  0  0  0  0  0  0  0  0  0  0  0
   14.5255   -7.8509    0.0000 O   0  0  0  0  0  0  0  0  0  0  0  0
   15.2338   -7.4434    0.0000 C   0  0  0  0  0  0  0  0  0  0  0  0
  2  1  2  0
  3  2  2  0
  5  4  2  0
  6  5  2  0
  7  8  1  0
  7 12  1  0
  8  9  1  0
  9 10  1  0
 10 11  1  0
 11 12  1  0
 10 13  1  0
 13 14  2  0
 13 15  1  0
 15 16  1  0
 16 17  1  0
  7 18  1  0
 18 19  2  0
 18 20  1  0
 20 21  1  0
 21 22  1  0
 22  5  1  0
 17  2  1  0
  5 23  1  0
  2 24  1  0
 23 25  2  0
 25 26  1  0
 26 27  2  0
 27 28  1  0
 28 29  2  0
 29 23  1  0
 24 30  2  0
 30 31  1  0
 31 32  2  0
 32 33  1  0
 33 34  2  0
 34 24  1  0
 25 35  1  0
 35 36  1  0
 28 37  1  0
 37 38  1  0
 30 39  1  0
 39 40  1  0
 33 41  1  0
 41 42  1  0
M  END
> <chembl_id>
CHEMBL4076012

> <chembl_pref_name>
None

$$$$
CHEMBL1822709
     RDKit          2D

 65 74  0  0  0  0  0  0  0  0999 V2000
    0.9237   -6.2118    0.0000 C   0  0  0  0  0  0  0  0  0  0  0  0
    0.9166   -5.3868    0.0000 O   0  0  0  0  0  0  0  0  0  0  0  0
    1.6417   -6.6182    0.0000 N   0  0  0  0  0  0  0  0  0  0  0  0
    2.3526   -6.1995    0.0000 C   0  0  0  0  0  0  0  0  0  0  0  0
    3.0704   -6.6063    0.0000 C   0  0  0  0  0  0  0  0  0  0  0  0
    3.0448   -7.4276    0.0000 N   0  0  0  0  0  0  0  0  0  0  0  0
    3.8631   -6.3732    0.0000 N   0  0  0  0  0  0  0  0  0  0  0  0
    4.3267   -7.0555    0.0000 C   0  0  0  0  0  0  0  0  0  0  0  0
    3.8199   -7.7038    0.0000 C   0  0  0  0  0  0  0  0  0  0  0  0
    4.1283   -8.4647    0.0000 C   0  0  0  0  0  0  0  0  0  0  0  0
    4.9430   -8.5785    0.0000 C   0  0  0  0  0  0  0  0  0  0  0  0
    5.4486   -7.9248    0.0000 C   0  0  0  0  0  0  0  0  0  0  0  0
    5.1375   -7.1669    0.0000 C   0  0  0  0  0  0  0  0  0  0  0  0
    6.2724   -7.9277    0.0000 C   0  0  0  0  0  0  0  0  0  0  0  0
    6.7528   -8.5983    0.0000 N   0  0  0  0  0  0  0  0  0  0  0  0
    6.7619   -7.2637    0.0000 N   0  0  0  0  0  0  0  0  0  0  0  0
    7.5448   -7.5238    0.0000 C   0  0  0  0  0  0  0  0  0  0  0  0
    7.5376   -8.3466    0.0000 C   0  0  0  0  0  0  0  0  0  0  0  0
    8.2456   -8.7626    0.0000 C   0  0  0  0  0  0  0  0  0  0  0  0
    8.9613   -8.3567    0.0000 C   0  0  0  0  0  0  0  0  0  0  0  0
    8.9645   -7.5305    0.0000 C   0  0  0  0  0  0  0  0  0  0  0  0
    8.2558   -7.1184    0.0000 C   0  0  0  0  0  0  0  0  0  0  0  0
    9.6798   -7.1211    0.0000 N   0  0  0  0  0  0  0  0  0  0  0  0
   10.3926   -7.5383    0.0000 C   0  0  0  0  0  0  0  0  0  0  0  0
   11.1063   -7.1319    0.0000 C   0  0  0  0  0  0  0  0  0  0  0  0
   11.1135   -6.3066    0.0000 N   0  0  0  0  0  0  0  0  0  0  0  0
   10.4007   -5.8893    0.0000 C   0  0  0  0  0  0  0  0  0  0  0  0
    9.6807   -6.2975    0.0000 C   0  0  0  0  0  0  0  0  0  0  0  0
   11.8310   -5.8994    0.0000 C   0  0  0  0  0  0  0  0  0  0  0  0
  -12.9879   -7.3349    0.0000 C   0  0  0  0  0  0  0  0  0  0  0  0
  -12.9952   -8.1381    0.0000 C   0  0  0  0  0  0  0  0  0  0  0  0
  -12.3029   -8.5389    0.0000 C   0  0  0  0  0  0  0  0  0  0  0  0
  -12.3012   -6.9342    0.0000 C   0  0  0  0  0  0  0  0  0  0  0  0
  -11.6051   -7.3314    0.0000 C   0  0  0  0  0  0  0  0  0  0  0  0
  -11.6015   -8.1381    0.0000 C   0  0  0  0  0  0  0  0  0  0  0  0
  -10.8373   -8.3846    0.0000 N   0  0  0  0  0  0  0  0  0  0  0  0
  -10.3653   -7.7275    0.0000 C   0  0  0  0  0  0  0  0  0  0  0  0
  -10.8380   -7.0802    0.0000 N   0  0  0  0  0  0  0  0  0  0  0  0
  -13.7202   -6.9187    0.0000 N   0  0  0  0  0  0  0  0  0  0  0  0
  -13.7137   -6.0847    0.0000 C   0  0  0  0  0  0  0  0  0  0  0  0
  -14.4369   -5.6686    0.0000 C   0  0  0  0  0  0  0  0  0  0  0  0
  -15.1621   -6.0817    0.0000 N   0  0  0  0  0  0  0  0  0  0  0  0
  -15.1603   -6.9156    0.0000 C   0  0  0  0  0  0  0  0  0  0  0  0
  -14.4416   -7.3364    0.0000 C   0  0  0  0  0  0  0  0  0  0  0  0
  -15.8784   -5.6627    0.0000 C   0  0  0  0  0  0  0  0  0  0  0  0
   -9.5297   -7.7198    0.0000 C   0  0  0  0  0  0  0  0  0  0  0  0
   -9.1164   -8.4415    0.0000 C   0  0  0  0  0  0  0  0  0  0  0  0
   -8.2821   -8.4369    0.0000 C   0  0  0  0  0  0  0  0  0  0  0  0
   -9.1224   -7.0012    0.0000 C   0  0  0  0  0  0  0  0  0  0  0  0
   -8.2949   -6.9932    0.0000 C   0  0  0  0  0  0  0  0  0  0  0  0
   -7.8701   -7.7111    0.0000 C   0  0  0  0  0  0  0  0  0  0  0  0
   -7.0537   -7.5313    0.0000 N   0  0  0  0  0  0  0  0  0  0  0  0
   -6.9745   -6.6981    0.0000 C   0  0  0  0  0  0  0  0  0  0  0  0
   -7.7395   -6.3641    0.0000 N   0  0  0  0  0  0  0  0  0  0  0  0
   -6.2514   -6.2750    0.0000 C   0  0  0  0  0  0  0  0  0  0  0  0
   -5.5223   -6.6849    0.0000 N   0  0  0  0  0  0  0  0  0  0  0  0
   -4.8078   -6.2618    0.0000 C   0  0  0  0  0  0  0  0  0  0  0  0
   -4.8154   -5.4288    0.0000 O   0  0  0  0  0  0  0  0  0  0  0  0
   -4.0814   -6.6716    0.0000 C   0  0  0  0  0  0  0  0  0  0  0  0
   -3.3629   -6.2484    0.0000 C   0  0  0  0  0  0  0  0  0  0  0  0
   -2.6449   -6.6548    0.0000 C   0  0  0  0  0  0  0  0  0  0  0  0
   -1.9341   -6.2362    0.0000 C   0  0  0  0  0  0  0  0  0  0  0  0
   -1.2161   -6.6426    0.0000 C   0  0  0  0  0  0  0  0  0  0  0  0
   -0.5051   -6.2240    0.0000 C   0  0  0  0  0  0  0  0  0  0  0  0
    0.2128   -6.6304    0.0000 C   0  0  0  0  0  0  0  0  0  0  0  0
 30 31  2  0
  7  5  1  0
 31 32  1  0
 32 35  2  0
 15 18  1  0
 34 33  2  0
 33 30  1  0
 34 35  1  0
 17 16  1  0
 16 14  1  0
 12 14  1  0
  3  4  1  0
 35 36  1  0
 36 37  2  0
 37 38  1  0
 38 34  1  0
 39 40  1  0
 17 18  2  0
  8  9  2  0
 18 19  1  0
  4  5  1  0
 19 20  2  0
  9 10  1  0
 39 44  1  0
 40 41  1  0
 41 42  1  0
 42 43  1  0
 43 44  1  0
 30 39  1  0
 20 21  1  0
 42 45  1  0
  5  6  2  0
 21 22  2  0
 46 47  2  0
 22 17  1  0
 47 48  1  0
 48 51  2  0
 23 24  1  0
 50 49  2  0
 49 46  1  0
 37 46  1  0
 50 51  1  0
 10 11  2  0
  1  3  1  0
 11 12  1  0
  1  2  2  0
 12 13  2  0
 51 52  1  0
 52 53  2  0
 53 54  1  0
 54 50  1  0
 13  8  1  0
 53 55  1  0
 23 28  1  0
 55 56  1  0
 24 25  1  0
 56 57  1  0
 25 26  1  0
 57 58  2  0
 26 27  1  0
 57 59  1  0
 27 28  1  0
 59 60  1  0
 21 23  1  0
 60 61  1  0
 14 15  2  0
 61 62  1  0
 26 29  1  0
 62 63  1  0
  6  9  1  0
 63 64  1  0
  8  7  1  0
 64 65  1  0
 65  1  1  0
M  END
> <chembl_id>
CHEMBL1822709

> <chembl_pref_name>
None

$$$$
CHEMBL3415703
     RDKit          2D

 23 26  0  0  0  0  0  0  0  0999 V2000
   -2.3155    0.7475    0.0000 C   0  0  0  0  0  0  0  0  0  0  0  0
   -2.3155   -0.7475    0.0000 C   0  0  0  0  0  0  0  0  0  0  0  0
   -1.0028   -1.5132    0.0000 C   0  0  0  0  0  0  0  0  0  0  0  0
   -1.0028    1.5132    0.0000 C   0  0  0  0  0  0  0  0  0  0  0  0
    0.2917    0.7475    0.0000 C   0  0  0  0  0  0  0  0  0  0  0  0
    0.2917   -0.7475    0.0000 C   0  0  0  0  0  0  0  0  0  0  0  0
    1.7138   -1.2033    0.0000 N   0  0  0  0  0  0  0  0  0  0  0  0
    2.5889    0.0182    0.0000 C   0  0  0  0  0  0  0  0  0  0  0  0
    1.7138    1.2033    0.0000 C   0  0  0  0  0  0  0  0  0  0  0  0
    4.0896    0.0290    0.0000 C   0  0  0  0  0  0  0  0  0  0  0  0
    4.9412   -1.1997    0.0000 C   0  0  0  0  0  0  0  0  0  0  0  0
    6.4360   -1.0753    0.0000 C   0  0  0  0  0  0  0  0  0  0  0  0
    7.0757    0.2814    0.0000 C   0  0  0  0  0  0  0  0  0  0  0  0
    6.2206    1.5138    0.0000 C   0  0  0  0  0  0  0  0  0  0  0  0
    4.7258    1.3894    0.0000 C   0  0  0  0  0  0  0  0  0  0  0  0
    2.1855   -2.6254    0.0000 C   0  0  0  0  0  0  0  0  0  0  0  0
    3.6552   -2.9294    0.0000 C   0  0  0  0  0  0  0  0  0  0  0  0
    4.1295   -4.3524    0.0000 C   0  0  0  0  0  0  0  0  0  0  0  0
    5.5991   -4.6533    0.0000 C   0  0  0  0  0  0  0  0  0  0  0  0
    6.5944   -3.5310    0.0000 C   0  0  0  0  0  0  0  0  0  0  0  0
    6.1201   -2.1080    0.0000 C   0  0  0  0  0  0  0  0  0  0  0  0
    4.6506   -1.8071    0.0000 C   0  0  0  0  0  0  0  0  0  0  0  0
    8.2716    0.3809    0.0000 N   0  0  0  0  0  0  0  0  0  0  0  0
  1  2  1  0
  1  4  1  0
  2  3  1  0
  3  6  1  0
  5  4  1  0
  5  6  2  0
  6  7  1  0
  7  8  1  0
  8  9  2  0
  9  5  1  0
 10 11  2  0
 11 12  1  0
 12 13  2  0
 13 14  1  0
 14 15  2  0
 15 10  1  0
  8 10  1  0
  7 16  1  0
 16 17  1  0
 17 18  2  0
 18 19  1  0
 19 20  2  0
 20 21  1  0
 21 22  2  0
 22 17  1  0
 13 23  1  0
M  END
> <chembl_id>
CHEMBL3415703

> <chembl_pref_name>
None

$$$$
CHEMBL4075921
     RDKit          2D

 37 39  0  0  0  0  0  0  0  0999 V2000
    3.3554   -2.8354    0.0000 O   0  0  0  0  0  0  0  0  0  0  0  0
    3.7682   -3.5453    0.0000 S   0  0  0  0  0  0  0  0  0  0  0  0
    4.1766   -2.8329    0.0000 O   0  0  0  0  0  0  0  0  0  0  0  0
   12.6582   -5.8813    0.0000 O   0  0  0  0  0  0  0  0  0  0  0  0
   12.2537   -5.1755    0.0000 S   0  0  0  0  0  0  0  0  0  0  0  0
   11.8448   -5.8787    0.0000 O   0  0  0  0  0  0  0  0  0  0  0  0
    7.3093   -3.9456    0.0000 N   0  0  0  0  0  0  0  0  0  0  0  0
    7.3093   -4.7628    0.0000 C   0  0  0  0  0  0  0  0  0  0  0  0
    8.0146   -5.1673    0.0000 C   0  0  0  0  0  0  0  0  0  0  0  0
    8.7199   -4.7628    0.0000 N   0  0  0  0  0  0  0  0  0  0  0  0
    8.7199   -3.9456    0.0000 C   0  0  0  0  0  0  0  0  0  0  0  0
    8.0146   -3.5329    0.0000 C   0  0  0  0  0  0  0  0  0  0  0  0
    9.4270   -5.1724    0.0000 C   0  0  0  0  0  0  0  0  0  0  0  0
   10.1353   -4.7649    0.0000 C   0  0  0  0  0  0  0  0  0  0  0  0
   10.8424   -5.1745    0.0000 C   0  0  0  0  0  0  0  0  0  0  0  0
   11.5507   -4.7669    0.0000 N   0  0  0  0  0  0  0  0  0  0  0  0
   12.9661   -4.7690    0.0000 C   0  0  0  0  0  0  0  0  0  0  0  0
    6.6004   -3.5391    0.0000 C   0  0  0  0  0  0  0  0  0  0  0  0
    5.8939   -3.9498    0.0000 C   0  0  0  0  0  0  0  0  0  0  0  0
    5.1850   -3.5433    0.0000 C   0  0  0  0  0  0  0  0  0  0  0  0
    4.4785   -3.9539    0.0000 N   0  0  0  0  0  0  0  0  0  0  0  0
    3.0631   -3.9581    0.0000 C   0  0  0  0  0  0  0  0  0  0  0  0
    2.3550   -3.5481    0.0000 C   0  0  0  0  0  0  0  0  0  0  0  0
    1.6490   -3.9581    0.0000 C   0  0  0  0  0  0  0  0  0  0  0  0
    1.6510   -4.7761    0.0000 C   0  0  0  0  0  0  0  0  0  0  0  0
    2.3648   -5.1825    0.0000 C   0  0  0  0  0  0  0  0  0  0  0  0
    3.0679   -4.7701    0.0000 C   0  0  0  0  0  0  0  0  0  0  0  0
   13.6698   -5.1827    0.0000 C   0  0  0  0  0  0  0  0  0  0  0  0
   14.3776   -4.7758    0.0000 C   0  0  0  0  0  0  0  0  0  0  0  0
   14.3792   -3.9577    0.0000 C   0  0  0  0  0  0  0  0  0  0  0  0
   13.6671   -3.5482    0.0000 C   0  0  0  0  0  0  0  0  0  0  0  0
   12.9622   -3.9575    0.0000 C   0  0  0  0  0  0  0  0  0  0  0  0
    0.9450   -5.1877    0.0000 Cl  0  0  0  0  0  0  0  0  0  0  0  0
   15.0870   -3.5492    0.0000 C   0  0  0  0  0  0  0  0  0  0  0  0
   15.7946   -3.9579    0.0000 C   0  0  0  0  0  0  0  0  0  0  0  0
   15.0871   -2.7320    0.0000 C   0  0  0  0  0  0  0  0  0  0  0  0
   15.7908   -3.1326    0.0000 C   0  0  0  0  0  0  0  0  0  0  0  0
  2  1  2  0
  3  2  2  0
  5  4  2  0
  6  5  2  0
  7  8  1  0
  7 12  1  0
  8  9  1  0
  9 10  1  0
 10 11  1  0
 11 12  1  0
 10 13  1  0
 13 14  1  0
 14 15  1  0
 15 16  1  0
 16  5  1  0
  5 17  1  0
  7 18  1  0
 18 19  1  0
 19 20  1  0
 20 21  1  0
 21  2  1  0
  2 22  1  0
 22 23  2  0
 23 24  1  0
 24 25  2  0
 25 26  1  0
 26 27  2  0
 27 22  1  0
 17 28  2  0
 28 29  1  0
 29 30  2  0
 30 31  1  0
 31 32  2  0
 32 17  1  0
 25 33  1  0
 30 34  1  0
 34 35  1  0
 34 36  1  0
 34 37  1  0
M  END
> <chembl_id>
CHEMBL4075921

> <chembl_pref_name>
None

$$$$
CHEMBL4475150
     RDKit          2D

 18 20  0  0  0  0  0  0  0  0999 V2000
    4.2993   -8.7230    0.0000 S   0  0  0  0  0  0  0  0  0  0  0  0
    4.7982   -8.0756    0.0000 C   0  0  0  0  0  0  0  0  0  0  0  0
    4.3340   -7.4000    0.0000 N   0  0  0  0  0  0  0  0  0  0  0  0
    3.5289   -8.4505    0.0000 C   0  0  0  0  0  0  0  0  0  0  0  0
    3.5521   -7.6359    0.0000 C   0  0  0  0  0  0  0  0  0  0  0  0
    2.8593   -7.2103    0.0000 C   0  0  0  0  0  0  0  0  0  0  0  0
    2.1429   -7.5981    0.0000 C   0  0  0  0  0  0  0  0  0  0  0  0
    2.1235   -8.4160    0.0000 N   0  0  0  0  0  0  0  0  0  0  0  0
    2.8170   -8.8379    0.0000 C   0  0  0  0  0  0  0  0  0  0  0  0
    5.6119   -8.0993    0.0000 C   0  0  0  0  0  0  0  0  0  0  0  0
    6.0004   -8.8195    0.0000 C   0  0  0  0  0  0  0  0  0  0  0  0
    6.8165   -8.8420    0.0000 C   0  0  0  0  0  0  0  0  0  0  0  0
    7.2451   -8.1452    0.0000 C   0  0  0  0  0  0  0  0  0  0  0  0
    6.8516   -7.4242    0.0000 C   0  0  0  0  0  0  0  0  0  0  0  0
    6.0367   -7.4051    0.0000 C   0  0  0  0  0  0  0  0  0  0  0  0
    5.6456   -6.6876    0.0000 O   0  0  0  0  0  0  0  0  0  0  0  0
    6.0714   -5.9901    0.0000 C   0  0  0  0  0  0  0  0  0  0  0  0
    5.6803   -5.2726    0.0000 C   0  0  0  0  0  0  0  0  0  0  0  0
  4  1  1  0
  1  2  1  0
  2  3  2  0
  3  5  1  0
  4  5  2  0
  5  6  1  0
  6  7  2  0
  7  8  1  0
  8  9  2  0
  9  4  1  0
 10 11  2  0
 11 12  1  0
 12 13  2  0
 13 14  1  0
 14 15  2  0
 15 10  1  0
  2 10  1  0
 15 16  1  0
 16 17  1  0
 17 18  1  0
M  END
> <chembl_id>
CHEMBL4475150

> <chembl_pref_name>
None

$$$$
CHEMBL3947214
     RDKit          2D

 25 29  0  0  0  0  0  0  0  0999 V2000
   12.6062  -13.9924    0.0000 C   0  0  0  0  0  0  0  0  0  0  0  0
   11.8971  -14.4010    0.0000 N   0  0  0  0  0  0  0  0  0  0  0  0
   11.1921  -13.9924    0.0000 C   0  0  0  0  0  0  0  0  0  0  0  0
   11.1921  -13.1752    0.0000 C   0  0  0  0  0  0  0  0  0  0  0  0
   11.8971  -12.7666    0.0000 C   0  0  0  0  0  0  0  0  0  0  0  0
   12.6062  -13.1752    0.0000 N   0  0  0  0  0  0  0  0  0  0  0  0
   10.4149  -12.9247    0.0000 C   0  0  0  0  0  0  0  0  0  0  0  0
    9.9347  -13.5838    0.0000 C   0  0  0  0  0  0  0  0  0  0  0  0
   10.4149  -14.2471    0.0000 S   0  0  0  0  0  0  0  0  0  0  0  0
    9.1575  -13.3333    0.0000 C   0  0  0  0  0  0  0  0  0  0  0  0
    9.1575  -12.5161    0.0000 C   0  0  0  0  0  0  0  0  0  0  0  0
    9.9347  -12.2614    0.0000 C   0  0  0  0  0  0  0  0  0  0  0  0
   11.8971  -11.9494    0.0000 N   0  0  0  0  0  0  0  0  0  0  0  0
   12.6062  -11.5408    0.0000 N   0  0  0  0  0  0  0  0  0  0  0  0
   12.6062  -10.7237    0.0000 C   0  0  0  0  0  0  0  0  0  0  0  0
   13.3152  -10.3151    0.0000 C   0  0  0  0  0  0  0  0  0  0  0  0
   11.8971  -10.3151    0.0000 C   0  0  0  0  0  0  0  0  0  0  0  0
   11.8130   -9.5046    0.0000 N   0  0  0  0  0  0  0  0  0  0  0  0
   11.0147   -9.3339    0.0000 C   0  0  0  0  0  0  0  0  0  0  0  0
   10.6061  -10.0388    0.0000 C   0  0  0  0  0  0  0  0  0  0  0  0
   11.1539  -10.6494    0.0000 N   0  0  0  0  0  0  0  0  0  0  0  0
    9.7889  -10.0389    0.0000 C   0  0  0  0  0  0  0  0  0  0  0  0
    9.3803   -9.3339    0.0000 C   0  0  0  0  0  0  0  0  0  0  0  0
    9.7889   -8.6248    0.0000 C   0  0  0  0  0  0  0  0  0  0  0  0
   10.6061   -8.6248    0.0000 C   0  0  0  0  0  0  0  0  0  0  0  0
  1  2  1  0
  2  3  2  0
  3  4  1  0
  4  5  2  0
  5  6  1  0
  1  6  2  0
  7  8  2  0
  8  9  1  0
 10 11  1  0
 11 12  1  0
  7 12  1  0
  8 10  1  0
  3  9  1  0
  4  7  1  0
 13 14  1  0
 15 16  1  0
 17 18  1  0
 18 19  1  0
 19 20  1  0
 20 21  1  0
 17 21  2  0
 22 23  1  0
 23 24  2  0
 24 25  1  0
 19 25  2  0
 20 22  2  0
 15 17  1  0
 14 15  2  0
  5 13  1  0
M  END
> <chembl_id>
CHEMBL3947214

> <chembl_pref_name>
None

$$$$
CHEMBL3964307
     RDKit          2D

 26 30  0  0  0  0  0  0  0  0999 V2000
   12.7721  -10.3300    0.0000 C   0  0  0  0  0  0  0  0  0  0  0  0
   12.8383   -9.5167    0.0000 N   0  0  0  0  0  0  0  0  0  0  0  0
   13.6341   -9.3246    0.0000 C   0  0  0  0  0  0  0  0  0  0  0  0
   14.0606  -10.0223    0.0000 C   0  0  0  0  0  0  0  0  0  0  0  0
   13.5273  -10.6447    0.0000 N   0  0  0  0  0  0  0  0  0  0  0  0
   14.8774  -10.0043    0.0000 C   0  0  0  0  0  0  0  0  0  0  0  0
   15.2677   -9.2885    0.0000 C   0  0  0  0  0  0  0  0  0  0  0  0
   14.8413   -8.5909    0.0000 C   0  0  0  0  0  0  0  0  0  0  0  0
   14.0244   -8.6089    0.0000 C   0  0  0  0  0  0  0  0  0  0  0  0
   12.0745  -10.7564    0.0000 C   0  0  0  0  0  0  0  0  0  0  0  0
   11.3587  -10.3661    0.0000 O   0  0  0  0  0  0  0  0  0  0  0  0
   12.0966  -11.5733    0.0000 N   0  0  0  0  0  0  0  0  0  0  0  0
   11.3989  -11.9997    0.0000 N   0  0  0  0  0  0  0  0  0  0  0  0
   12.1548  -14.0237    0.0000 C   0  0  0  0  0  0  0  0  0  0  0  0
   11.4571  -14.4502    0.0000 N   0  0  0  0  0  0  0  0  0  0  0  0
   10.7414  -14.0599    0.0000 C   0  0  0  0  0  0  0  0  0  0  0  0
   10.7192  -13.2430    0.0000 C   0  0  0  0  0  0  0  0  0  0  0  0
   11.4169  -12.8166    0.0000 C   0  0  0  0  0  0  0  0  0  0  0  0
   12.1368  -13.2069    0.0000 N   0  0  0  0  0  0  0  0  0  0  0  0
    9.9371  -13.0092    0.0000 C   0  0  0  0  0  0  0  0  0  0  0  0
    9.4735  -13.6817    0.0000 C   0  0  0  0  0  0  0  0  0  0  0  0
    9.9698  -14.3310    0.0000 S   0  0  0  0  0  0  0  0  0  0  0  0
    8.6603  -13.6156    0.0000 C   0  0  0  0  0  0  0  0  0  0  0  0
    8.3107  -12.8769    0.0000 C   0  0  0  0  0  0  0  0  0  0  0  0
    8.7743  -12.2043    0.0000 C   0  0  0  0  0  0  0  0  0  0  0  0
    9.5875  -12.2704    0.0000 C   0  0  0  0  0  0  0  0  0  0  0  0
  1  2  1  0
  2  3  1  0
  3  4  1  0
  4  5  1  0
  1  5  2  0
  6  7  1  0
  7  8  2  0
  8  9  1  0
  3  9  2  0
  4  6  2  0
 12 13  1  0
 10 11  2  0
 10 12  1  0
  1 10  1  0
 14 15  1  0
 15 16  2  0
 16 17  1  0
 17 18  2  0
 18 19  1  0
 14 19  2  0
 20 21  2  0
 21 22  1  0
 23 24  1  0
 24 25  1  0
 25 26  1  0
 20 26  1  0
 21 23  1  0
 16 22  1  0
 17 20  1  0
 13 18  1  0
M  END
> <chembl_id>
CHEMBL3964307

> <chembl_pref_name>
None

$$$$
CHEMBL4094601
     RDKit          2D

 35 37  0  0  0  0  0  0  0  0999 V2000
   25.7209  -24.7097    0.0000 O   0  0  0  0  0  0  0  0  0  0  0  0
   25.3164  -24.0040    0.0000 S   0  0  0  0  0  0  0  0  0  0  0  0
   24.9075  -24.7071    0.0000 O   0  0  0  0  0  0  0  0  0  0  0  0
   16.4222  -21.6432    0.0000 O   0  0  0  0  0  0  0  0  0  0  0  0
   16.8350  -22.3531    0.0000 S   0  0  0  0  0  0  0  0  0  0  0  0
   17.2434  -21.6407    0.0000 O   0  0  0  0  0  0  0  0  0  0  0  0
   18.9605  -22.7658    0.0000 C   0  0  0  0  0  0  0  0  0  0  0  0
   19.6682  -22.3572    0.0000 C   0  0  0  0  0  0  0  0  0  0  0  0
   20.3759  -22.7658    0.0000 N   0  0  0  0  0  0  0  0  0  0  0  0
   18.2528  -22.3572    0.0000 C   0  0  0  0  0  0  0  0  0  0  0  0
   17.5451  -22.7658    0.0000 N   0  0  0  0  0  0  0  0  0  0  0  0
   16.1297  -22.7658    0.0000 C   0  0  0  0  0  0  0  0  0  0  0  0
   15.4226  -22.3539    0.0000 C   0  0  0  0  0  0  0  0  0  0  0  0
   14.7154  -22.7618    0.0000 C   0  0  0  0  0  0  0  0  0  0  0  0
   14.7150  -23.5799    0.0000 C   0  0  0  0  0  0  0  0  0  0  0  0
   15.4276  -23.9883    0.0000 C   0  0  0  0  0  0  0  0  0  0  0  0
   16.1319  -23.5780    0.0000 C   0  0  0  0  0  0  0  0  0  0  0  0
   20.3697  -23.5794    0.0000 C   0  0  0  0  0  0  0  0  0  0  0  0
   21.0733  -23.9879    0.0000 C   0  0  0  0  0  0  0  0  0  0  0  0
   21.7834  -23.5828    0.0000 N   0  0  0  0  0  0  0  0  0  0  0  0
   21.7854  -22.7647    0.0000 C   0  0  0  0  0  0  0  0  0  0  0  0
   21.0772  -22.3516    0.0000 C   0  0  0  0  0  0  0  0  0  0  0  0
   22.4896  -23.9941    0.0000 C   0  0  0  0  0  0  0  0  0  0  0  0
   22.4865  -24.8112    0.0000 O   0  0  0  0  0  0  0  0  0  0  0  0
   23.1988  -23.5881    0.0000 C   0  0  0  0  0  0  0  0  0  0  0  0
   23.9050  -23.9994    0.0000 C   0  0  0  0  0  0  0  0  0  0  0  0
   24.6142  -23.5935    0.0000 N   0  0  0  0  0  0  0  0  0  0  0  0
   26.0297  -23.5989    0.0000 C   0  0  0  0  0  0  0  0  0  0  0  0
   26.7327  -24.0106    0.0000 C   0  0  0  0  0  0  0  0  0  0  0  0
   27.4415  -23.6054    0.0000 C   0  0  0  0  0  0  0  0  0  0  0  0
   27.4450  -22.7873    0.0000 C   0  0  0  0  0  0  0  0  0  0  0  0
   26.7339  -22.3762    0.0000 C   0  0  0  0  0  0  0  0  0  0  0  0
   26.0280  -22.7838    0.0000 C   0  0  0  0  0  0  0  0  0  0  0  0
   14.0078  -23.9894    0.0000 C   0  0  0  0  0  0  0  0  0  0  0  0
   28.1537  -22.3805    0.0000 C   0  0  0  0  0  0  0  0  0  0  0  0
  2  1  2  0
  3  2  2  0
  5  4  2  0
  6  5  2  0
  7  8  1  0
  8  9  1  0
  7 10  1  0
 10 11  1  0
 11  5  1  0
  5 12  1  0
 12 13  2  0
 13 14  1  0
 14 15  2  0
 15 16  1  0
 16 17  2  0
 17 12  1  0
  9 18  1  0
  9 22  1  0
 18 19  1  0
 19 20  1  0
 20 21  1  0
 21 22  1  0
 20 23  1  0
 23 24  2  0
 23 25  1  0
 25 26  1  0
 26 27  1  0
 27  2  1  0
  2 28  1  0
 28 29  2  0
 29 30  1  0
 30 31  2  0
 31 32  1  0
 32 33  2  0
 33 28  1  0
 15 34  1  0
 31 35  1  0
M  END
> <chembl_id>
CHEMBL4094601

> <chembl_pref_name>
None

$$$$
CHEMBL4065442
     RDKit          2D

 30 32  0  0  0  0  0  0  0  0999 V2000
   30.9460   -8.5723    0.0000 O   0  0  0  0  0  0  0  0  0  0  0  0
   30.5415   -7.8665    0.0000 S   0  0  0  0  0  0  0  0  0  0  0  0
   30.1325   -8.5697    0.0000 O   0  0  0  0  0  0  0  0  0  0  0  0
   23.0588   -7.9656    0.0000 O   0  0  0  0  0  0  0  0  0  0  0  0
   23.4715   -8.6754    0.0000 S   0  0  0  0  0  0  0  0  0  0  0  0
   23.8800   -7.9631    0.0000 O   0  0  0  0  0  0  0  0  0  0  0  0
   26.3028   -7.8582    0.0000 C   0  0  0  0  0  0  0  0  0  0  0  0
   26.3028   -8.6754    0.0000 N   0  0  0  0  0  0  0  0  0  0  0  0
   27.0081   -9.0799    0.0000 C   0  0  0  0  0  0  0  0  0  0  0  0
   27.7134   -8.6754    0.0000 C   0  0  0  0  0  0  0  0  0  0  0  0
   27.7134   -7.8582    0.0000 N   0  0  0  0  0  0  0  0  0  0  0  0
   27.0081   -7.4455    0.0000 C   0  0  0  0  0  0  0  0  0  0  0  0
   28.4223   -7.4517    0.0000 C   0  0  0  0  0  0  0  0  0  0  0  0
   29.1288   -7.8624    0.0000 C   0  0  0  0  0  0  0  0  0  0  0  0
   29.8377   -7.4559    0.0000 N   0  0  0  0  0  0  0  0  0  0  0  0
   25.5957   -9.0851    0.0000 C   0  0  0  0  0  0  0  0  0  0  0  0
   24.8874   -8.6775    0.0000 C   0  0  0  0  0  0  0  0  0  0  0  0
   24.1803   -9.0871    0.0000 N   0  0  0  0  0  0  0  0  0  0  0  0
   22.7649   -9.0892    0.0000 C   0  0  0  0  0  0  0  0  0  0  0  0
   22.0574   -8.6800    0.0000 C   0  0  0  0  0  0  0  0  0  0  0  0
   21.3508   -9.0889    0.0000 C   0  0  0  0  0  0  0  0  0  0  0  0
   21.3516   -9.9070    0.0000 C   0  0  0  0  0  0  0  0  0  0  0  0
   22.0648  -10.3144    0.0000 C   0  0  0  0  0  0  0  0  0  0  0  0
   22.7685   -9.9031    0.0000 C   0  0  0  0  0  0  0  0  0  0  0  0
   31.2531   -7.4600    0.0000 C   0  0  0  0  0  0  0  0  0  0  0  0
   31.9565   -7.8740    0.0000 C   0  0  0  0  0  0  0  0  0  0  0  0
   32.6649   -7.4682    0.0000 C   0  0  0  0  0  0  0  0  0  0  0  0
   32.6677   -6.6501    0.0000 C   0  0  0  0  0  0  0  0  0  0  0  0
   31.9562   -6.2396    0.0000 C   0  0  0  0  0  0  0  0  0  0  0  0
   31.2507   -6.6478    0.0000 C   0  0  0  0  0  0  0  0  0  0  0  0
  2  1  2  0
  3  2  2  0
  5  4  2  0
  6  5  2  0
  7  8  1  0
  7 12  1  0
  8  9  1  0
  9 10  1  0
 10 11  1  0
 11 12  1  0
 11 13  1  0
 13 14  1  0
 14 15  1  0
  8 16  1  0
 16 17  1  0
 17 18  1  0
 18  5  1  0
  5 19  1  0
 19 20  2  0
 20 21  1  0
 21 22  2  0
 22 23  1  0
 23 24  2  0
 24 19  1  0
 15  2  1  0
  2 25  1  0
 25 26  2  0
 26 27  1  0
 27 28  2  0
 28 29  1  0
 29 30  2  0
 30 25  1  0
M  END
> <chembl_id>
CHEMBL4065442

> <chembl_pref_name>
None

$$$$
CHEMBL4436602
     RDKit          2D

 18 20  0  0  0  0  0  0  0  0999 V2000
   20.6181   -2.4095    0.0000 N   0  0  0  0  0  0  0  0  0  0  0  0
   19.9551   -1.9274    0.0000 N   0  0  0  0  0  0  0  0  0  0  0  0
   19.2964   -2.4095    0.0000 C   0  0  0  0  0  0  0  0  0  0  0  0
   20.3637   -3.1863    0.0000 C   0  0  0  0  0  0  0  0  0  0  0  0
   19.5465   -3.1863    0.0000 N   0  0  0  0  0  0  0  0  0  0  0  0
   19.2940   -3.9635    0.0000 N   0  0  0  0  0  0  0  0  0  0  0  0
   19.9551   -4.4439    0.0000 C   0  0  0  0  0  0  0  0  0  0  0  0
   20.6162   -3.9635    0.0000 S   0  0  0  0  0  0  0  0  0  0  0  0
   19.9552   -5.2610    0.0000 C   0  0  0  0  0  0  0  0  0  0  0  0
   19.2477   -5.6663    0.0000 C   0  0  0  0  0  0  0  0  0  0  0  0
   19.2474   -6.4828    0.0000 C   0  0  0  0  0  0  0  0  0  0  0  0
   19.9557   -6.8922    0.0000 C   0  0  0  0  0  0  0  0  0  0  0  0
   20.6657   -6.4791    0.0000 C   0  0  0  0  0  0  0  0  0  0  0  0
   20.6625   -5.6641    0.0000 C   0  0  0  0  0  0  0  0  0  0  0  0
   21.3683   -5.2521    0.0000 O   0  0  0  0  0  0  0  0  0  0  0  0
   22.0779   -5.6573    0.0000 C   0  0  0  0  0  0  0  0  0  0  0  0
   18.5408   -5.2564    0.0000 O   0  0  0  0  0  0  0  0  0  0  0  0
   17.8323   -5.6637    0.0000 C   0  0  0  0  0  0  0  0  0  0  0  0
  4  1  2  0
  1  2  1  0
  2  3  2  0
  3  5  1  0
  4  5  1  0
  5  6  1  0
  6  7  2  0
  7  8  1  0
  8  4  1  0
  7  9  1  0
  9 10  2  0
 10 11  1  0
 11 12  2  0
 12 13  1  0
 13 14  2  0
 14  9  1  0
 14 15  1  0
 15 16  1  0
 10 17  1  0
 17 18  1  0
M  END
> <chembl_id>
CHEMBL4436602

> <chembl_pref_name>
None

$$$$
CHEMBL4082614
     RDKit          2D

 31 35  0  0  0  0  0  0  0  0999 V2000
   18.9883  -14.2586    0.0000 C   0  0  0  0  0  0  0  0  0  0  0  0
   18.5058  -13.6000    0.0000 C   0  0  0  0  0  0  0  0  0  0  0  0
   18.7526  -12.8203    0.0000 C   0  0  0  0  0  0  0  0  0  0  0  0
   18.0887  -12.3468    0.0000 N   0  0  0  0  0  0  0  0  0  0  0  0
   17.4303  -12.8295    0.0000 C   0  0  0  0  0  0  0  0  0  0  0  0
   17.6887  -13.6041    0.0000 C   0  0  0  0  0  0  0  0  0  0  0  0
   16.6505  -12.5827    0.0000 C   0  0  0  0  0  0  0  0  0  0  0  0
   16.4758  -11.7861    0.0000 C   0  0  0  0  0  0  0  0  0  0  0  0
   15.6961  -11.5392    0.0000 C   0  0  0  0  0  0  0  0  0  0  0  0
   15.0910  -12.0891    0.0000 C   0  0  0  0  0  0  0  0  0  0  0  0
   15.2699  -12.8857    0.0000 C   0  0  0  0  0  0  0  0  0  0  0  0
   16.0455  -13.1367    0.0000 C   0  0  0  0  0  0  0  0  0  0  0  0
   18.0845  -11.5297    0.0000 C   0  0  0  0  0  0  0  0  0  0  0  0
   18.7853  -11.1180    0.0000 C   0  0  0  0  0  0  0  0  0  0  0  0
   18.7812  -10.3009    0.0000 C   0  0  0  0  0  0  0  0  0  0  0  0
   18.0721   -9.8953    0.0000 C   0  0  0  0  0  0  0  0  0  0  0  0
   17.3672  -10.3069    0.0000 C   0  0  0  0  0  0  0  0  0  0  0  0
   17.3713  -11.1241    0.0000 C   0  0  0  0  0  0  0  0  0  0  0  0
   19.5273  -12.5660    0.0000 O   0  0  0  0  0  0  0  0  0  0  0  0
   19.8049  -14.2287    0.0000 C   0  0  0  0  0  0  0  0  0  0  0  0
   20.2349  -14.9240    0.0000 C   0  0  0  0  0  0  0  0  0  0  0  0
   21.0508  -14.8945    0.0000 C   0  0  0  0  0  0  0  0  0  0  0  0
   21.4340  -14.1717    0.0000 C   0  0  0  0  0  0  0  0  0  0  0  0
   20.9952  -13.4772    0.0000 C   0  0  0  0  0  0  0  0  0  0  0  0
   20.1808  -13.5103    0.0000 C   0  0  0  0  0  0  0  0  0  0  0  0
   22.2484  -14.1411    0.0000 C   0  0  0  0  0  0  0  0  0  0  0  0
   22.6830  -14.8344    0.0000 C   0  0  0  0  0  0  0  0  0  0  0  0
   23.4989  -14.8038    0.0000 C   0  0  0  0  0  0  0  0  0  0  0  0
   23.8811  -14.0805    0.0000 C   0  0  0  0  0  0  0  0  0  0  0  0
   23.4414  -13.3866    0.0000 C   0  0  0  0  0  0  0  0  0  0  0  0
   22.6271  -13.4207    0.0000 C   0  0  0  0  0  0  0  0  0  0  0  0
  1  2  2  0
  2  3  1  0
  3  4  1  0
  4  5  1  0
  5  6  2  0
  2  6  1  0
  5  7  1  0
  7  8  2  0
  8  9  1  0
  9 10  2  0
 10 11  1  0
 11 12  2  0
  7 12  1  0
  4 13  1  0
 13 14  2  0
 14 15  1  0
 15 16  2  0
 16 17  1  0
 17 18  2  0
 13 18  1  0
  3 19  2  0
  1 20  1  0
 20 21  2  0
 21 22  1  0
 22 23  2  0
 23 24  1  0
 24 25  2  0
 25 20  1  0
 26 27  2  0
 27 28  1  0
 28 29  2  0
 29 30  1  0
 30 31  2  0
 31 26  1  0
 23 26  1  0
M  END
> <chembl_id>
CHEMBL4082614

> <chembl_pref_name>
None

$$$$
CHEMBL3120366
     RDKit          2D

 22 24  0  0  0  0  0  0  0  0999 V2000
   13.4038  -18.9522    0.0000 C   0  0  0  0  0  0  0  0  0  0  0  0
   13.4027  -19.7676    0.0000 C   0  0  0  0  0  0  0  0  0  0  0  0
   14.1148  -20.1766    0.0000 C   0  0  0  0  0  0  0  0  0  0  0  0
   14.1131  -18.5433    0.0000 C   0  0  0  0  0  0  0  0  0  0  0  0
   14.8176  -18.9486    0.0000 C   0  0  0  0  0  0  0  0  0  0  0  0
   14.8178  -19.7676    0.0000 C   0  0  0  0  0  0  0  0  0  0  0  0
   15.5967  -20.0177    0.0000 N   0  0  0  0  0  0  0  0  0  0  0  0
   16.0721  -19.3639    0.0000 C   0  0  0  0  0  0  0  0  0  0  0  0
   15.5962  -18.6982    0.0000 C   0  0  0  0  0  0  0  0  0  0  0  0
   15.8485  -17.9168    0.0000 C   0  0  0  0  0  0  0  0  0  0  0  0
   16.6437  -17.7466    0.0000 C   0  0  0  0  0  0  0  0  0  0  0  0
   16.8959  -16.9693    0.0000 O   0  0  0  0  0  0  0  0  0  0  0  0
   17.1907  -18.3537    0.0000 O   0  0  0  0  0  0  0  0  0  0  0  0
   15.8453  -20.7989    0.0000 C   0  0  0  0  0  0  0  0  0  0  0  0
   16.6441  -20.9730    0.0000 C   0  0  0  0  0  0  0  0  0  0  0  0
   16.8949  -21.7471    0.0000 C   0  0  0  0  0  0  0  0  0  0  0  0
   17.6898  -21.9204    0.0000 C   0  0  0  0  0  0  0  0  0  0  0  0
   18.2396  -21.3200    0.0000 C   0  0  0  0  0  0  0  0  0  0  0  0
   17.9870  -20.5387    0.0000 C   0  0  0  0  0  0  0  0  0  0  0  0
   17.1927  -20.3641    0.0000 C   0  0  0  0  0  0  0  0  0  0  0  0
   12.6871  -20.1863    0.0000 Br  0  0  0  0  0  0  0  0  0  0  0  0
   18.5384  -19.9366    0.0000 Cl  0  0  0  0  0  0  0  0  0  0  0  0
  1  2  2  0
  2  3  1  0
  3  6  2  0
  5  4  2  0
  4  1  1  0
  5  6  1  0
  6  7  1  0
  7  8  1  0
  8  9  2  0
  9  5  1  0
  9 10  1  0
 10 11  1  0
 11 12  2  0
 11 13  1  0
  7 14  1  0
 14 15  1  0
 15 16  2  0
 16 17  1  0
 17 18  2  0
 18 19  1  0
 19 20  2  0
 20 15  1  0
  2 21  1  0
 19 22  1  0
M  END
> <chembl_id>
CHEMBL3120366

> <chembl_pref_name>
None

$$$$
CHEMBL1813736
     RDKit          2D

 61 65  0  0  0  0  0  0  0  0999 V2000
    4.6835   -2.0486    0.0000 O   0  0  0  0  0  0  0  0  0  0  0  0
    3.8873   -1.8360    0.0000 S   0  0  0  0  0  0  0  0  0  0  0  0
    4.1013   -2.6318    0.0000 O   0  0  0  0  0  0  0  0  0  0  0  0
    1.0489    1.4569    0.0000 O   0  0  0  0  0  0  0  0  0  0  0  0
    0.3343    1.8757    0.0000 C   0  0  0  0  0  0  0  0  0  0  0  0
   -1.0841    2.7066    0.0000 N   0  0  0  0  0  0  0  0  0  0  0  0
   -1.0852    1.8778    0.0000 C   0  0  0  0  0  0  0  0  0  0  0  0
   -0.3754    1.4677    0.0000 C   0  0  0  0  0  0  0  0  0  0  0  0
   -0.3705    3.1194    0.0000 C   0  0  0  0  0  0  0  0  0  0  0  0
    0.3400    2.7041    0.0000 C   0  0  0  0  0  0  0  0  0  0  0  0
    1.0498    3.1091    0.0000 C   0  0  0  0  0  0  0  0  0  0  0  0
    1.0560    3.9314    0.0000 C   0  0  0  0  0  0  0  0  0  0  0  0
    0.3388    4.3424    0.0000 C   0  0  0  0  0  0  0  0  0  0  0  0
   -0.3685    3.9361    0.0000 C   0  0  0  0  0  0  0  0  0  0  0  0
    0.3373    5.1677    0.0000 O   0  0  0  0  0  0  0  0  0  0  0  0
    1.0547    5.5816    0.0000 C   0  0  0  0  0  0  0  0  0  0  0  0
   -1.8013    1.4652    0.0000 C   0  0  0  0  0  0  0  0  0  0  0  0
   -2.5165    1.8814    0.0000 C   0  0  0  0  0  0  0  0  0  0  0  0
   -3.2319    1.4656    0.0000 C   0  0  0  0  0  0  0  0  0  0  0  0
   -3.2325    0.6432    0.0000 C   0  0  0  0  0  0  0  0  0  0  0  0
   -2.5130    0.2308    0.0000 C   0  0  0  0  0  0  0  0  0  0  0  0
   -1.7979    0.6419    0.0000 C   0  0  0  0  0  0  0  0  0  0  0  0
    1.0469    0.6316    0.0000 C   0  0  0  0  0  0  0  0  0  0  0  0
    0.3248    0.2275    0.0000 C   0  0  0  0  0  0  0  0  0  0  0  0
    0.3223   -0.5966    0.0000 C   0  0  0  0  0  0  0  0  0  0  0  0
    1.0361   -1.0117    0.0000 C   0  0  0  0  0  0  0  0  0  0  0  0
    1.7506   -0.5976    0.0000 C   0  0  0  0  0  0  0  0  0  0  0  0
    1.7519    0.2244    0.0000 C   0  0  0  0  0  0  0  0  0  0  0  0
    1.0316   -1.8369    0.0000 C   0  0  0  0  0  0  0  0  0  0  0  0
   -0.4001   -1.8354    0.0000 C   0  0  0  0  0  0  0  0  0  0  0  0
   -1.1143   -2.2441    0.0000 C   0  0  0  0  0  0  0  0  0  0  0  0
   -0.3957   -1.0102    0.0000 O   0  0  0  0  0  0  0  0  0  0  0  0
   -1.1187   -3.0694    0.0000 C   0  0  0  0  0  0  0  0  0  0  0  0
   -1.8329   -3.4823    0.0000 C   0  0  0  0  0  0  0  0  0  0  0  0
   -0.4049   -3.4859    0.0000 C   0  0  0  0  0  0  0  0  0  0  0  0
   -1.1252   -3.8962    0.0000 C   0  0  0  0  0  0  0  0  0  0  0  0
    1.7414   -2.2534    0.0000 C   0  0  0  0  0  0  0  0  0  0  0  0
    2.4597   -1.8404    0.0000 O   0  0  0  0  0  0  0  0  0  0  0  0
    2.4549   -3.4993    0.0000 C   0  0  0  0  0  0  0  0  0  0  0  0
    2.4504   -4.3246    0.0000 C   0  0  0  0  0  0  0  0  0  0  0  0
    3.1732   -3.0822    0.0000 C   0  0  0  0  0  0  0  0  0  0  0  0
    3.1684   -4.7410    0.0000 C   0  0  0  0  0  0  0  0  0  0  0  0
    3.1640   -5.5663    0.0000 C   0  0  0  0  0  0  0  0  0  0  0  0
    3.8957   -3.5040    0.0000 O   0  0  0  0  0  0  0  0  0  0  0  0
    3.8571   -1.0075    0.0000 C   0  0  0  0  0  0  0  0  0  0  0  0
    4.3556   -0.5081    0.0000 C   0  0  0  0  0  0  0  0  0  0  0  0
    3.8897    0.2754    0.0000 C   0  0  0  0  0  0  0  0  0  0  0  0
    2.1710    0.8657    0.0000 C   0  0  0  0  0  0  0  0  0  0  0  0
    2.9162    0.8981    0.0000 C   0  0  0  0  0  0  0  0  0  0  0  0
    3.2621    0.2771    0.0000 C   0  0  0  0  0  0  0  0  0  0  0  0
   -2.5432   -2.2439    0.0000 C   0  0  0  0  0  0  0  0  0  0  0  0
   -2.5420   -3.0664    0.0000 O   0  0  0  0  0  0  0  0  0  0  0  0
   -3.2626   -1.8292    0.0000 O   0  0  0  0  0  0  0  0  0  0  0  0
   -3.9825   -2.2405    0.0000 C   0  0  0  0  0  0  0  0  0  0  0  0
   -4.6963   -1.8266    0.0000 C   0  0  0  0  0  0  0  0  0  0  0  0
   -3.9839   -3.0610    0.0000 C   0  0  0  0  0  0  0  0  0  0  0  0
   -4.6922   -2.6599    0.0000 C   0  0  0  0  0  0  0  0  0  0  0  0
    3.1780   -2.2572    0.0000 N   0  0  0  0  0  0  0  0  0  0  0  0
    1.7454   -3.0783    0.0000 N   0  0  0  0  0  0  0  0  0  0  0  0
    0.3153   -2.2463    0.0000 N   0  0  0  0  0  0  0  0  0  0  0  0
   -1.8287   -1.8315    0.0000 N   0  0  0  0  0  0  0  0  0  0  0  0
  2  1  2  0
  3  2  2  0
  4  5  1  0
  5 10  2  0
  9  6  2  0
  6  7  1  0
  7  8  2  0
  8  5  1  0
  9 10  1  0
 10 11  1  0
 11 12  2  0
 12 13  1  0
 13 14  2  0
 14  9  1  0
 13 15  1  0
 15 16  1  0
  7 17  1  0
 17 18  2  0
 18 19  1  0
 19 20  2  0
 20 21  1  0
 21 22  2  0
 22 17  1  0
  4 23  1  0
 23 24  2  0
 24 25  1  0
 25 26  2  0
 26 27  1  0
 27 28  2  0
 28 23  1  0
 29 26  1  0
 30 31  1  0
 30 32  2  0
 31 33  1  6
 33 34  1  0
 33 35  1  0
 33 36  1  0
 29 37  1  0
 37 38  2  0
 39 40  1  6
 39 41  1  0
 40 42  1  0
 42 43  1  0
 41 44  2  0
  2 45  1  0
 45 46  1  0
 46 47  1  0
 28 48  1  0
 48 49  1  0
 49 50  1  0
 50 47  1  0
 51 52  2  0
 51 53  1  0
 53 54  1  0
 54 55  1  0
 54 56  1  0
 54 57  1  0
 41 58  1  0
  2 58  1  0
 37 59  1  0
 39 59  1  0
 29 60  1  1
 30 60  1  0
 31 61  1  0
 51 61  1  0
M  END
> <chembl_id>
CHEMBL1813736

> <chembl_pref_name>
None

$$$$
CHEMBL3954771
     RDKit          2D

 23 26  0  0  0  0  0  0  0  0999 V2000
   13.3991   -9.5548    0.0000 C   0  0  0  0  0  0  0  0  0  0  0  0
   14.1162   -9.9500    0.0000 C   0  0  0  0  0  0  0  0  0  0  0  0
   13.3825   -8.7378    0.0000 N   0  0  0  0  0  0  0  0  0  0  0  0
   14.8127   -9.5283    0.0000 C   0  0  0  0  0  0  0  0  0  0  0  0
   14.8003   -8.7114    0.0000 C   0  0  0  0  0  0  0  0  0  0  0  0
   14.0831   -8.3161    0.0000 C   0  0  0  0  0  0  0  0  0  0  0  0
   12.7026   -9.9764    0.0000 C   0  0  0  0  0  0  0  0  0  0  0  0
   11.9855   -9.5853    0.0000 O   0  0  0  0  0  0  0  0  0  0  0  0
   12.7191  -10.7934    0.0000 N   0  0  0  0  0  0  0  0  0  0  0  0
   12.0185  -11.2192    0.0000 N   0  0  0  0  0  0  0  0  0  0  0  0
   12.7646  -13.2483    0.0000 C   0  0  0  0  0  0  0  0  0  0  0  0
   12.0682  -13.6700    0.0000 N   0  0  0  0  0  0  0  0  0  0  0  0
   11.3510  -13.2748    0.0000 C   0  0  0  0  0  0  0  0  0  0  0  0
   11.3345  -12.4578    0.0000 C   0  0  0  0  0  0  0  0  0  0  0  0
   12.0351  -12.0362    0.0000 C   0  0  0  0  0  0  0  0  0  0  0  0
   12.7522  -12.4273    0.0000 N   0  0  0  0  0  0  0  0  0  0  0  0
   10.5540  -12.2186    0.0000 C   0  0  0  0  0  0  0  0  0  0  0  0
   10.0858  -12.8921    0.0000 C   0  0  0  0  0  0  0  0  0  0  0  0
   10.5776  -13.5447    0.0000 S   0  0  0  0  0  0  0  0  0  0  0  0
    9.2730  -12.8204    0.0000 C   0  0  0  0  0  0  0  0  0  0  0  0
    8.9243  -12.0834    0.0000 C   0  0  0  0  0  0  0  0  0  0  0  0
    9.3925  -11.4099    0.0000 C   0  0  0  0  0  0  0  0  0  0  0  0
   10.2053  -11.4816    0.0000 C   0  0  0  0  0  0  0  0  0  0  0  0
  1  2  1  0
  1  3  2  0
  2  4  2  0
  4  5  1  0
  5  6  2  0
  3  6  1  0
  7  8  2  0
  9 10  1  0
 11 12  1  0
 12 13  2  0
 13 14  1  0
 14 15  2  0
 15 16  1  0
 11 16  2  0
 17 18  2  0
 18 19  1  0
 20 21  1  0
 21 22  1  0
 22 23  1  0
 17 23  1  0
 18 20  1  0
 13 19  1  0
 14 17  1  0
 10 15  1  0
  7  9  1  0
  1  7  1  0
M  END
> <chembl_id>
CHEMBL3954771

> <chembl_pref_name>
None

$$$$
CHEMBL43501
     RDKit          2D

 44 49  0  0  0  0  0  0  0  0999 V2000
   12.6667   -9.1042    0.0000 C   0  0  0  0  0  0  0  0  0  0  0  0
   -0.8833   -6.1292    0.0000 C   0  0  0  0  0  0  0  0  0  0  0  0
   -1.6000   -6.5417    0.0000 N   0  0  0  0  0  0  0  0  0  0  0  0
   12.6625   -9.8250    0.0000 N   0  0  0  0  0  0  0  0  0  0  0  0
   13.2917   -8.7417    0.0000 N   0  0  0  0  0  0  0  0  0  0  0  0
   -0.8750   -5.3042    0.0000 N   0  0  0  0  0  0  0  0  0  0  0  0
   -2.3083   -5.3042    0.0000 C   0  0  0  0  0  0  0  0  0  0  0  0
   13.9042   -9.8292    0.0000 C   0  0  0  0  0  0  0  0  0  0  0  0
    9.1042   -7.8500    0.0000 C   0  0  0  0  0  0  0  0  0  0  0  0
    2.6750   -7.3917    0.0000 C   0  0  0  0  0  0  0  0  0  0  0  0
   -1.5958   -4.8917    0.0000 C   0  0  0  0  0  0  0  0  0  0  0  0
   13.9042   -9.1167    0.0000 C   0  0  0  0  0  0  0  0  0  0  0  0
   -0.1750   -6.5500    0.0000 C   0  0  0  0  0  0  0  0  0  0  0  0
   11.9542   -8.6875    0.0000 C   0  0  0  0  0  0  0  0  0  0  0  0
    1.9542   -7.8042    0.0000 N   0  0  0  0  0  0  0  0  0  0  0  0
    9.8167   -7.4417    0.0000 N   0  0  0  0  0  0  0  0  0  0  0  0
    9.1000   -8.6750    0.0000 O   0  0  0  0  0  0  0  0  0  0  0  0
    2.6792   -6.5667    0.0000 O   0  0  0  0  0  0  0  0  0  0  0  0
    3.3875   -7.8125    0.0000 N   0  0  0  0  0  0  0  0  0  0  0  0
    8.3917   -7.4292    0.0000 N   0  0  0  0  0  0  0  0  0  0  0  0
   11.2375   -9.1000    0.0000 C   0  0  0  0  0  0  0  0  0  0  0  0
   -0.1833   -7.3750    0.0000 C   0  0  0  0  0  0  0  0  0  0  0  0
    0.5417   -6.1417    0.0000 C   0  0  0  0  0  0  0  0  0  0  0  0
   11.9542   -7.8542    0.0000 C   0  0  0  0  0  0  0  0  0  0  0  0
   10.5292   -7.8542    0.0000 C   0  0  0  0  0  0  0  0  0  0  0  0
    1.2417   -7.3792    0.0000 C   0  0  0  0  0  0  0  0  0  0  0  0
   10.5167   -8.6792    0.0000 C   0  0  0  0  0  0  0  0  0  0  0  0
    1.2500   -6.5542    0.0000 C   0  0  0  0  0  0  0  0  0  0  0  0
   11.2417   -7.4417    0.0000 C   0  0  0  0  0  0  0  0  0  0  0  0
    0.5292   -7.7917    0.0000 C   0  0  0  0  0  0  0  0  0  0  0  0
   14.5250  -10.1917    0.0000 C   0  0  0  0  0  0  0  0  0  0  0  0
   -3.0208   -4.8917    0.0000 C   0  0  0  0  0  0  0  0  0  0  0  0
   14.5292   -8.7625    0.0000 C   0  0  0  0  0  0  0  0  0  0  0  0
   -1.5958   -4.0667    0.0000 C   0  0  0  0  0  0  0  0  0  0  0  0
    7.6750   -7.8417    0.0000 C   0  0  0  0  0  0  0  0  0  0  0  0
    4.1042   -7.4042    0.0000 C   0  0  0  0  0  0  0  0  0  0  0  0
    4.8167   -7.8167    0.0000 C   0  0  0  0  0  0  0  0  0  0  0  0
    6.9625   -7.4167    0.0000 C   0  0  0  0  0  0  0  0  0  0  0  0
    6.2417   -7.8292    0.0000 C   0  0  0  0  0  0  0  0  0  0  0  0
    5.5292   -7.4125    0.0000 C   0  0  0  0  0  0  0  0  0  0  0  0
   15.1417   -9.8375    0.0000 C   0  0  0  0  0  0  0  0  0  0  0  0
   -2.3083   -3.6542    0.0000 C   0  0  0  0  0  0  0  0  0  0  0  0
   -3.0208   -4.0667    0.0000 C   0  0  0  0  0  0  0  0  0  0  0  0
   15.1417   -9.1167    0.0000 C   0  0  0  0  0  0  0  0  0  0  0  0
  2 13  1  0
  3  2  2  0
  4  1  2  0
  5  1  1  0
  6  2  1  0
  7  3  1  0
  8  4  1  0
  9 16  1  0
 10 19  1  0
 11  6  1  0
 12  5  1  0
 13 22  2  0
 14  1  1  0
 15 10  1  0
 16 25  1  0
 17  9  2  0
 18 10  2  0
 19 36  1  0
 20  9  1  0
 21 14  2  0
 22 30  1  0
 23 28  2  0
 24 14  1  0
 25 29  1  0
 26 15  1  0
 27 21  1  0
 28 26  1  0
 29 24  2  0
 30 26  2  0
 31  8  1  0
 32  7  1  0
 33 12  1  0
 34 11  1  0
 35 20  1  0
 36 37  1  0
 37 40  1  0
 38 35  1  0
 39 38  1  0
 40 39  1  0
 41 31  2  0
 42 34  2  0
 43 32  2  0
 44 33  2  0
 12  8  2  0
 25 27  2  0
 41 44  1  0
 23 13  1  0
 11  7  2  0
 42 43  1  0
M  END
> <chembl_id>
CHEMBL43501

> <chembl_pref_name>
None

$$$$
CHEMBL4085296
     RDKit          2D

 17 18  0  0  0  0  0  0  0  0999 V2000
   14.5966  -11.6346    0.0000 C   0  0  0  0  0  0  0  0  0  0  0  0
   14.5954  -12.4542    0.0000 C   0  0  0  0  0  0  0  0  0  0  0  0
   15.3035  -12.8631    0.0000 C   0  0  0  0  0  0  0  0  0  0  0  0
   16.0132  -12.4537    0.0000 C   0  0  0  0  0  0  0  0  0  0  0  0
   16.0103  -11.6310    0.0000 C   0  0  0  0  0  0  0  0  0  0  0  0
   15.3017  -11.2258    0.0000 C   0  0  0  0  0  0  0  0  0  0  0  0
   15.2993  -10.4086    0.0000 O   0  0  0  0  0  0  0  0  0  0  0  0
   16.0057   -9.9979    0.0000 C   0  0  0  0  0  0  0  0  0  0  0  0
   16.7126  -10.4067    0.0000 C   0  0  0  0  0  0  0  0  0  0  0  0
   17.4186   -9.9967    0.0000 C   0  0  0  0  0  0  0  0  0  0  0  0
   17.4166   -9.1786    0.0000 C   0  0  0  0  0  0  0  0  0  0  0  0
   16.7027   -8.7723    0.0000 C   0  0  0  0  0  0  0  0  0  0  0  0
   15.9996   -9.1847    0.0000 C   0  0  0  0  0  0  0  0  0  0  0  0
   15.3033  -13.6803    0.0000 C   0  0  0  0  0  0  0  0  0  0  0  0
   16.0109  -14.0891    0.0000 N   0  0  0  0  0  0  0  0  0  0  0  0
   16.7165  -11.2198    0.0000 F   0  0  0  0  0  0  0  0  0  0  0  0
   13.8888  -11.2262    0.0000 F   0  0  0  0  0  0  0  0  0  0  0  0
  1  2  2  0
  2  3  1  0
  3  4  2  0
  4  5  1  0
  5  6  2  0
  6  1  1  0
  6  7  1  0
  7  8  1  0
  8  9  2  0
  9 10  1  0
 10 11  2  0
 11 12  1  0
 12 13  2  0
 13  8  1  0
  3 14  1  0
 14 15  1  0
  5 16  1  0
  1 17  1  0
M  END
> <chembl_id>
CHEMBL4085296

> <chembl_pref_name>
None

$$$$
CHEMBL551130
     RDKit          2D

 30 33  0  0  0  0  0  0  0  0999 V2000
    6.9176   -2.6312    0.0000 C   0  0  0  0  0  0  0  0  0  0  0  0
    6.9176   -3.4562    0.0000 C   0  0  0  0  0  0  0  0  0  0  0  0
    7.6321   -3.8687    0.0000 C   0  0  0  0  0  0  0  0  0  0  0  0
    7.6321   -2.2187    0.0000 C   0  0  0  0  0  0  0  0  0  0  0  0
    8.3466   -2.6312    0.0000 C   0  0  0  0  0  0  0  0  0  0  0  0
    8.3466   -3.4562    0.0000 C   0  0  0  0  0  0  0  0  0  0  0  0
    9.0611   -3.8687    0.0000 O   0  0  0  0  0  0  0  0  0  0  0  0
    9.7755   -3.4562    0.0000 C   0  0  0  0  0  0  0  0  0  0  0  0
    9.7755   -2.6312    0.0000 C   0  0  0  0  0  0  0  0  0  0  0  0
    9.0611   -2.2187    0.0000 C   0  0  0  0  0  0  0  0  0  0  0  0
   10.4900   -3.8687    0.0000 C   0  0  0  0  0  0  0  0  0  0  0  0
   10.4900   -4.6937    0.0000 C   0  0  0  0  0  0  0  0  0  0  0  0
   11.2045   -5.1062    0.0000 C   0  0  0  0  0  0  0  0  0  0  0  0
   11.2045   -3.4562    0.0000 C   0  0  0  0  0  0  0  0  0  0  0  0
   10.4900   -2.2187    0.0000 O   0  0  0  0  0  0  0  0  0  0  0  0
    9.0611   -1.3937    0.0000 O   0  0  0  0  0  0  0  0  0  0  0  0
    7.6321   -1.3937    0.0000 O   0  0  0  0  0  0  0  0  0  0  0  0
    6.2032   -3.8687    0.0000 O   0  0  0  0  0  0  0  0  0  0  0  0
   11.9189   -3.8687    0.0000 C   0  0  0  0  0  0  0  0  0  0  0  0
   11.9189   -4.6937    0.0000 C   0  0  0  0  0  0  0  0  0  0  0  0
    5.4887   -3.4562    0.0000 C   0  0  0  0  0  0  0  0  0  0  0  0
    4.7742   -3.8687    0.0000 C   0  0  0  0  0  0  0  0  0  0  0  0
    4.7742   -4.6937    0.0000 C   0  0  0  0  0  0  0  0  0  0  0  0
    4.0598   -5.1062    0.0000 C   0  0  0  0  0  0  0  0  0  0  0  0
    3.3453   -4.6937    0.0000 C   0  0  0  0  0  0  0  0  0  0  0  0
    3.3453   -3.8687    0.0000 C   0  0  0  0  0  0  0  0  0  0  0  0
    4.0598   -3.4562    0.0000 C   0  0  0  0  0  0  0  0  0  0  0  0
   12.6334   -3.4562    0.0000 O   0  0  0  0  0  0  0  0  0  0  0  0
   12.6334   -5.1062    0.0000 O   0  0  0  0  0  0  0  0  0  0  0  0
    2.6308   -3.4562    0.0000 Cl  0  0  0  0  0  0  0  0  0  0  0  0
 19 14  2  0
 14 11  1  0
  1  2  2  0
  9 15  1  0
  5  4  2  0
 10 16  2  0
  4  1  1  0
  4 17  1  0
  5 10  1  0
  2 18  1  0
 19 20  1  0
  6  7  1  0
  7  8  1  0
  8  9  2  0
 18 21  1  0
  9 10  1  0
 21 22  1  0
  5  6  1  0
 22 23  2  0
  8 11  1  0
 23 24  1  0
 24 25  2  0
 11 12  2  0
 25 26  1  0
  2  3  1  0
 26 27  2  0
 27 22  1  0
 12 13  1  0
 19 28  1  0
 13 20  2  0
 20 29  1  0
  3  6  2  0
 26 30  1  0
M  END
> <chembl_id>
CHEMBL551130

> <chembl_pref_name>
None

$$$$
CHEMBL1546228
     RDKit          2D

 17 18  0  0  0  0  0  0  0  0999 V2000
   -3.1481   -0.3862    0.0000 O   0  0  0  0  0  0  0  0  0  0  0  0
   -3.9185    0.9483    0.0000 O   0  0  0  0  0  0  0  0  0  0  0  0
   -0.6100    1.9688    0.0000 N   0  0  0  0  0  0  0  0  0  0  0  0
    0.1045    1.5563    0.0000 N   0  0  0  0  0  0  0  0  0  0  0  0
   -1.3244    1.5563    0.0000 C   0  0  0  0  0  0  0  0  0  0  0  0
   -2.6833    0.2955    0.0000 C   0  0  0  0  0  0  0  0  0  0  0  0
   -3.0958    1.0099    0.0000 C   0  0  0  0  0  0  0  0  0  0  0  0
   -1.2628    0.7337    0.0000 C   0  0  0  0  0  0  0  0  0  0  0  0
   -2.0061    2.0211    0.0000 C   0  0  0  0  0  0  0  0  0  0  0  0
   -1.8676    0.1725    0.0000 C   0  0  0  0  0  0  0  0  0  0  0  0
   -2.7944    1.7779    0.0000 C   0  0  0  0  0  0  0  0  0  0  0  0
    0.1045    0.7313    0.0000 C   0  0  0  0  0  0  0  0  0  0  0  0
    0.8190    0.3188    0.0000 C   0  0  0  0  0  0  0  0  0  0  0  0
   -0.6100    0.3188    0.0000 C   0  0  0  0  0  0  0  0  0  0  0  0
    0.8190   -0.5062    0.0000 C   0  0  0  0  0  0  0  0  0  0  0  0
   -0.6100   -0.5062    0.0000 C   0  0  0  0  0  0  0  0  0  0  0  0
    0.1045   -0.9187    0.0000 C   0  0  0  0  0  0  0  0  0  0  0  0
  1  6  2  0
  2  7  2  0
  3  4  1  0
  3  5  2  0
  4 12  1  0
  5  8  1  0
  5  9  1  0
  6  7  1  0
  6 10  1  0
  7 11  1  0
  8 10  2  0
  9 11  2  0
 12 13  2  0
 12 14  1  0
 13 15  1  0
 14 16  2  0
 15 17  2  0
 16 17  1  0
M  END
> <chembl_id>
CHEMBL1546228

> <chembl_pref_name>
None

$$$$
CHEMBL504441
     RDKit          2D

 72 78  0  0  0  0  0  0  0  0999 V2000
    0.1574  -14.7947    0.0000 C   0  0  0  0  0  0  0  0  0  0  0  0
    0.1574  -15.6230    0.0000 C   0  0  0  0  0  0  0  0  0  0  0  0
    0.8687  -16.0328    0.0000 C   0  0  0  0  0  0  0  0  0  0  0  0
    0.8687  -14.3764    0.0000 C   0  0  0  0  0  0  0  0  0  0  0  0
    1.5842  -14.7947    0.0000 C   0  0  0  0  0  0  0  0  0  0  0  0
    1.5788  -15.6230    0.0000 C   0  0  0  0  0  0  0  0  0  0  0  0
    2.2894  -16.0361    0.0000 C   0  0  0  0  0  0  0  0  0  0  0  0
    3.0080  -15.6280    0.0000 C   0  0  0  0  0  0  0  0  0  0  0  0
    2.2959  -14.3839    0.0000 C   0  0  0  0  0  0  0  0  0  0  0  0
    3.0091  -14.8071    0.0000 C   0  0  0  0  0  0  0  0  0  0  0  0
    3.0266  -13.1469    0.0000 C   0  0  0  0  0  0  0  0  0  0  0  0
    2.3040  -13.5529    0.0000 C   0  0  0  0  0  0  0  0  0  0  0  0
    3.7441  -13.5701    0.0000 C   0  0  0  0  0  0  0  0  0  0  0  0
    3.7321  -14.4006    0.0000 C   0  0  0  0  0  0  0  0  0  0  0  0
    4.5118  -14.6692    0.0000 C   0  0  0  0  0  0  0  0  0  0  0  0
    5.0097  -14.0063    0.0000 C   0  0  0  0  0  0  0  0  0  0  0  0
    4.5363  -13.3279    0.0000 C   0  0  0  0  0  0  0  0  0  0  0  0
   -0.5608  -16.0366    0.0000 O   0  0  0  0  0  0  0  0  0  0  0  0
    0.4490  -16.7448    0.0000 C   0  0  0  0  0  0  0  0  0  0  0  0
    1.2772  -16.7448    0.0000 C   0  0  0  0  0  0  0  0  0  0  0  0
    1.5772  -13.9707    0.0000 C   0  0  0  0  0  0  0  0  0  0  0  0
    3.0013  -13.9792    0.0000 C   0  0  0  0  0  0  0  0  0  0  0  0
    4.8040  -12.5464    0.0000 C   0  0  0  0  0  0  0  0  0  0  0  0
    3.7238  -15.2278    0.0000 C   0  0  0  0  0  0  0  0  0  0  0  0
   -1.2768  -15.6261    0.0000 C   0  0  0  0  0  0  0  0  0  0  0  0
   -1.2780  -14.7998    0.0000 O   0  0  0  0  0  0  0  0  0  0  0  0
   -1.9918  -14.3854    0.0000 C   0  0  0  0  0  0  0  0  0  0  0  0
   -2.7097  -14.7978    0.0000 C   0  0  0  0  0  0  0  0  0  0  0  0
   -2.7108  -15.6234    0.0000 C   0  0  0  0  0  0  0  0  0  0  0  0
   -1.9942  -16.0406    0.0000 C   0  0  0  0  0  0  0  0  0  0  0  0
   -1.9938  -16.8687    0.0000 O   0  0  0  0  0  0  0  0  0  0  0  0
   -1.9931  -13.5614    0.0000 C   0  0  0  0  0  0  0  0  0  0  0  0
   -0.5660  -15.2071    0.0000 H   0  0  0  0  0  0  0  0  0  0  0  0
    5.3604  -13.3260    0.0000 H   0  0  0  0  0  0  0  0  0  0  0  0
    1.5731  -16.4431    0.0000 H   0  0  0  0  0  0  0  0  0  0  0  0
    2.2890  -15.2071    0.0000 H   0  0  0  0  0  0  0  0  0  0  0  0
    3.7373  -12.7433    0.0000 H   0  0  0  0  0  0  0  0  0  0  0  0
    5.0149  -11.7444    0.0000 O   0  0  0  0  0  0  0  0  0  0  0  0
    5.5928  -12.7848    0.0000 C   0  0  0  0  0  0  0  0  0  0  0  0
    5.7807  -13.5872    0.0000 C   0  0  0  0  0  0  0  0  0  0  0  0
    4.0143  -12.3112    0.0000 C   0  0  0  0  0  0  0  0  0  0  0  0
    6.5694  -13.8257    0.0000 C   0  0  0  0  0  0  0  0  0  0  0  0
    6.7573  -14.6279    0.0000 C   0  0  0  0  0  0  0  0  0  0  0  0
    7.5461  -14.8665    0.0000 C   0  0  0  0  0  0  0  0  0  0  0  0
    6.1563  -15.1919    0.0000 C   0  0  0  0  0  0  0  0  0  0  0  0
    5.8098  -11.5275    0.0000 C   0  0  0  0  0  0  0  0  0  0  0  0
    6.3917  -12.1068    0.0000 C   0  0  0  0  0  0  0  0  0  0  0  0
    7.1837  -11.8927    0.0000 C   0  0  0  0  0  0  0  0  0  0  0  0
    7.3975  -11.0965    0.0000 C   0  0  0  0  0  0  0  0  0  0  0  0
    6.8128  -10.5145    0.0000 C   0  0  0  0  0  0  0  0  0  0  0  0
    6.0144  -10.7286    0.0000 O   0  0  0  0  0  0  0  0  0  0  0  0
    6.1802  -12.9033    0.0000 O   0  0  0  0  0  0  0  0  0  0  0  0
    7.7668  -12.4749    0.0000 O   0  0  0  0  0  0  0  0  0  0  0  0
    8.1932  -10.8826    0.0000 O   0  0  0  0  0  0  0  0  0  0  0  0
    7.0251   -9.7182    0.0000 C   0  0  0  0  0  0  0  0  0  0  0  0
    7.8208   -9.5040    0.0000 O   0  0  0  0  0  0  0  0  0  0  0  0
    8.0330   -8.7078    0.0000 C   0  0  0  0  0  0  0  0  0  0  0  0
    8.8334   -8.4953    0.0000 C   0  0  0  0  0  0  0  0  0  0  0  0
    9.0466   -7.7031    0.0000 C   0  0  0  0  0  0  0  0  0  0  0  0
    8.4660   -7.1179    0.0000 C   0  0  0  0  0  0  0  0  0  0  0  0
    7.6688   -7.3304    0.0000 C   0  0  0  0  0  0  0  0  0  0  0  0
    7.4524   -8.1283    0.0000 O   0  0  0  0  0  0  0  0  0  0  0  0
    9.4150   -9.0790    0.0000 O   0  0  0  0  0  0  0  0  0  0  0  0
    9.8431   -7.4919    0.0000 O   0  0  0  0  0  0  0  0  0  0  0  0
    8.6814   -6.3224    0.0000 O   0  0  0  0  0  0  0  0  0  0  0  0
    7.0874   -6.7465    0.0000 C   0  0  0  0  0  0  0  0  0  0  0  0
    7.3025   -5.9511    0.0000 O   0  0  0  0  0  0  0  0  0  0  0  0
    5.2230  -10.9371    0.0000 H   0  0  0  0  0  0  0  0  0  0  0  0
    3.0378  -12.3230    0.0000 O   0  0  0  0  0  0  0  0  0  0  0  0
   -3.4271  -16.0374    0.0000 O   0  0  0  0  0  0  0  0  0  0  0  0
   -3.4274  -14.3833    0.0000 O   0  0  0  0  0  0  0  0  0  0  0  0
   -1.2725  -13.1477    0.0000 O   0  0  0  0  0  0  0  0  0  0  0  0
 25 33  1  6
  1  2  1  0
 17 34  1  6
  1  4  1  0
  6 35  1  6
  2  3  1  0
  9 36  1  6
  3  6  1  0
 13 37  1  1
  5  4  1  0
 23 38  1  1
  5  6  1  0
 23 39  1  0
  5  9  1  0
 39 40  1  0
  6  7  1  0
 23 41  1  0
  7  8  1  0
 40 42  1  0
  8 10  1  0
 42 43  2  0
  9 10  1  0
 43 44  1  0
  9 12  1  0
 43 45  1  0
 10 14  1  0
 38 46  1  0
 46 47  1  0
 13 11  1  0
 11 12  1  0
 13 14  1  0
 14 15  1  0
 15 16  1  0
 46 51  1  0
 47 48  1  0
 48 49  1  0
 49 50  1  0
 50 51  1  0
 16 17  1  0
 47 52  1  1
 17 13  1  0
 48 53  1  6
  2 18  1  1
 49 54  1  1
  3 19  1  0
 50 55  1  6
  3 20  1  0
 55 56  1  0
  5 21  1  1
 57 56  1  6
 57 58  1  0
 10 22  1  1
 17 23  1  0
 14 24  1  6
 25 18  1  0
 57 62  1  0
 58 59  1  0
 59 60  1  0
 60 61  1  0
 61 62  1  0
 25 26  1  0
 58 63  1  1
 25 30  1  0
 59 64  1  6
 26 27  1  0
 60 65  1  1
 27 28  1  0
 61 66  1  6
 28 29  1  0
 66 67  1  0
 29 30  1  0
 46 68  1  1
 30 31  1  6
 27 32  1  1
 29 70  1  1
 11 69  1  1
 28 71  1  6
 32 72  1  0
M  END
> <chembl_id>
CHEMBL504441

> <chembl_pref_name>
GYPENOSIDE XVII

$$$$
CHEMBL3415711
     RDKit          2D

 25 28  0  0  0  0  0  0  0  0999 V2000
    7.0793   -0.1764    0.0000 C   0  0  0  0  0  0  0  0  0  0  0  0
   -1.0028   -1.5132    0.0000 C   0  0  0  0  0  0  0  0  0  0  0  0
    6.4184    1.1701    0.0000 C   0  0  0  0  0  0  0  0  0  0  0  0
    1.7138   -1.2033    0.0000 C   0  0  0  0  0  0  0  0  0  0  0  0
    5.5886    4.6654    0.0000 C   0  0  0  0  0  0  0  0  0  0  0  0
   -2.3155    0.7475    0.0000 C   0  0  0  0  0  0  0  0  0  0  0  0
    6.2436   -1.4221    0.0000 C   0  0  0  0  0  0  0  0  0  0  0  0
    6.5873    3.5462    0.0000 C   0  0  0  0  0  0  0  0  0  0  0  0
    2.1812    2.6271    0.0000 C   0  0  0  0  0  0  0  0  0  0  0  0
    4.9218    1.2711    0.0000 C   0  0  0  0  0  0  0  0  0  0  0  0
   -2.3155   -0.7475    0.0000 C   0  0  0  0  0  0  0  0  0  0  0  0
    4.0896    0.0290    0.0000 C   0  0  0  0  0  0  0  0  0  0  0  0
    4.7470   -1.3211    0.0000 C   0  0  0  0  0  0  0  0  0  0  0  0
    2.5889    0.0182    0.0000 C   0  0  0  0  0  0  0  0  0  0  0  0
    6.1174    2.1217    0.0000 C   0  0  0  0  0  0  0  0  0  0  0  0
    0.2917   -0.7475    0.0000 C   0  0  0  0  0  0  0  0  0  0  0  0
    1.7138    1.2033    0.0000 N   0  0  0  0  0  0  0  0  0  0  0  0
    4.6488    1.8163    0.0000 C   0  0  0  0  0  0  0  0  0  0  0  0
    3.6500    2.9355    0.0000 C   0  0  0  0  0  0  0  0  0  0  0  0
   -1.0028    1.5132    0.0000 C   0  0  0  0  0  0  0  0  0  0  0  0
    4.1200    4.3600    0.0000 C   0  0  0  0  0  0  0  0  0  0  0  0
    0.2917    0.7475    0.0000 C   0  0  0  0  0  0  0  0  0  0  0  0
    8.5765   -0.2805    0.0000 N   0  0  0  0  0  0  0  0  0  0  0  0
    9.1037   -1.3585    0.0000 O   0  0  0  0  0  0  0  0  0  0  0  0
    9.2469    0.7148    0.0000 O   0  0  0  0  0  0  0  0  0  0  0  0
  6 20  1  0
  8  5  1  0
  9 19  1  0
  3 10  2  0
  5 21  2  0
 14 12  1  0
 11  6  1  0
 21 19  1  0
 18 15  1  0
 10 12  1  0
 17 14  1  0
 15  8  2  0
 12 13  2  0
 11  2  1  0
 16  2  1  0
 17  9  1  0
  1  3  1  0
 20 22  1  0
  7  1  2  0
 13  7  1  0
 14  4  2  0
 16 22  2  0
 19 18  2  0
 22 17  1  0
  4 16  1  0
 23 24  2  0
 23 25  1  0
  1 23  1  0
M  CHG  2  23   1  25  -1
M  END
> <chembl_id>
CHEMBL3415711

> <chembl_pref_name>
None

$$$$
CHEMBL417
     RDKit          2D

 39 43  0  0  1  0  0  0  0  0999 V2000
   10.9386    2.6582    0.0000 C   0  0  0  0  0  0  0  0  0  0  0  0
   11.6531    3.0707    0.0000 O   0  0  0  0  0  0  0  0  0  0  0  0
   11.6531    3.8957    0.0000 C   0  0  0  0  0  0  0  0  0  0  0  0
   10.9386    4.3082    0.0000 C   0  0  0  0  0  0  0  0  0  0  0  0
   10.9386    5.1332    0.0000 C   0  0  0  0  0  0  0  0  0  0  0  0
   11.6531    5.5457    0.0000 C   0  0  0  0  0  0  0  0  0  0  0  0
   12.3676    5.1332    0.0000 C   0  0  0  0  0  0  0  0  0  0  0  0
   13.0820    5.5457    0.0000 C   0  0  0  0  0  0  0  0  0  0  0  0
   13.0820    6.3707    0.0000 O   0  0  0  0  0  0  0  0  0  0  0  0
   13.7965    5.1332    0.0000 C   0  0  0  0  0  0  0  0  0  0  0  0
   14.5110    5.5457    0.0000 C   0  0  0  0  0  0  0  0  0  0  0  0
   14.5110    6.3707    0.0000 O   0  0  0  0  0  0  0  0  0  0  0  0
   15.2254    5.1332    0.0000 C   0  0  0  0  0  0  0  0  0  0  0  0
   15.9399    5.5457    0.0000 C   0  0  0  0  0  0  0  0  0  0  0  0
   16.6544    5.1332    0.0000 C   0  0  0  0  0  0  0  0  0  0  0  0
   17.4668    4.9900    0.0000 O   0  0  0  0  0  0  0  0  0  0  0  0
   16.6544    4.3082    0.0000 C   0  0  0  0  0  0  0  0  0  0  0  0
   15.9399    3.8957    0.0000 C   0  0  0  0  0  0  0  0  0  0  0  0
   15.9399    3.0707    0.0000 O   0  0  0  0  0  0  0  0  0  0  0  0
   16.6544    2.6582    0.0000 C   0  0  0  0  0  0  0  0  0  0  0  0
   17.3689    3.0707    0.0000 C   0  0  0  0  0  0  0  0  0  0  0  0
   18.0833    2.6582    0.0000 C   0  0  0  0  0  0  0  0  0  0  0  0
   18.7978    3.0707    0.0000 N   0  0  0  0  0  0  0  0  0  0  0  0
   18.0833    1.8332    0.0000 C   0  0  0  0  0  0  0  0  0  0  0  0
   18.7978    1.4207    0.0000 O   0  0  0  0  0  0  0  0  0  0  0  0
   17.3689    1.4207    0.0000 C   0  0  0  0  0  0  0  0  0  0  0  0
   17.3689    0.5957    0.0000 C   0  0  0  0  0  0  0  0  0  0  0  0
   16.6544    1.8332    0.0000 O   0  0  0  0  0  0  0  0  0  0  0  0
   15.2254    4.3082    0.0000 C   0  0  0  0  0  0  0  0  0  0  0  0
   14.5110    3.8957    0.0000 C   0  0  0  0  0  0  0  0  0  0  0  0
   14.5110    3.0707    0.0000 O   0  0  0  0  0  0  0  0  0  0  0  0
   13.7965    4.3082    0.0000 C   0  0  0  0  0  0  0  0  0  0  0  0
   13.0820    3.8957    0.0000 C   0  0  0  0  0  0  0  0  0  0  0  0
   13.0820    3.0707    0.0000 O   0  0  0  0  0  0  0  0  0  0  0  0
   12.3676    4.3082    0.0000 C   0  0  0  0  0  0  0  0  0  0  0  0
   16.9365    5.9085    0.0000 C   0  0  0  0  0  0  0  0  0  0  0  0
   17.7490    6.0517    0.0000 O   0  0  0  0  0  0  0  0  0  0  0  0
   16.4062    6.5405    0.0000 C   0  0  0  0  0  0  0  0  0  0  0  0
   16.6884    7.3157    0.0000 O   0  0  0  0  0  0  0  0  0  0  0  0
  1  2  1  0
  2  3  1  0
  3  4  2  0
  4  5  1  0
  5  6  2  0
  6  7  1  0
  7  8  1  0
  8  9  2  0
  8 10  1  0
 10 11  2  0
 11 12  1  0
 11 13  1  0
 13 14  1  0
 14 15  1  0
 15 16  1  6
 15 17  1  0
 17 18  1  0
 18 19  1  6
 20 19  1  1
 20 21  1  0
 21 22  1  0
 22 23  1  6
 22 24  1  0
 24 25  1  1
 24 26  1  0
 26 27  1  6
 26 28  1  0
 20 28  1  0
 18 29  1  0
 13 29  2  0
 29 30  1  0
 30 31  1  0
 30 32  2  0
 10 32  1  0
 32 33  1  0
 33 34  2  0
 33 35  1  0
  3 35  1  0
  7 35  2  0
 15 36  1  1
 36 37  2  0
 36 38  1  0
 38 39  1  0
M  END
> <chembl_id>
CHEMBL417

> <chembl_pref_name>
EPIRUBICIN

$$$$
CHEMBL2146123
     RDKit          2D

 35 37  0  0  0  0  0  0  0  0999 V2000
   26.5656   -7.5226    0.0000 Cl  0  0  0  0  0  0  0  0  0  0  0  0
   22.2037   -6.8090    0.0000 C   0  0  0  0  0  0  0  0  0  0  0  0
   22.1991   -5.9349    0.0000 C   0  0  0  0  0  0  0  0  0  0  0  0
   22.9179   -7.2154    0.0000 C   0  0  0  0  0  0  0  0  0  0  0  0
   21.5215   -7.2154    0.0000 C   0  0  0  0  0  0  0  0  0  0  0  0
   21.5181   -5.5493    0.0000 C   0  0  0  0  0  0  0  0  0  0  0  0
   22.9225   -5.5230    0.0000 C   0  0  0  0  0  0  0  0  0  0  0  0
   22.1991   -5.1039    0.0000 O   0  0  0  0  0  0  0  0  0  0  0  0
   23.6160   -6.8367    0.0000 C   0  0  0  0  0  0  0  0  0  0  0  0
   22.9179   -8.0464    0.0000 N   0  0  0  0  0  0  0  0  0  0  0  0
   20.7916   -6.8090    0.0000 C   0  0  0  0  0  0  0  0  0  0  0  0
   21.5215   -8.0463    0.0000 O   0  0  0  0  0  0  0  0  0  0  0  0
   20.7946   -5.9599    0.0000 C   0  0  0  0  0  0  0  0  0  0  0  0
   21.5181   -4.7183    0.0000 O   0  0  0  0  0  0  0  0  0  0  0  0
   23.6168   -5.9380    0.0000 C   0  0  0  0  0  0  0  0  0  0  0  0
   22.9225   -4.6920    0.0000 O   0  0  0  0  0  0  0  0  0  0  0  0
   24.3340   -7.2522    0.0000 O   0  0  0  0  0  0  0  0  0  0  0  0
   22.1922   -8.4639    0.0000 C   0  0  0  0  0  0  0  0  0  0  0  0
   23.6324   -8.4600    0.0000 C   0  0  0  0  0  0  0  0  0  0  0  0
   20.1022   -7.1878    0.0000 C   0  0  0  0  0  0  0  0  0  0  0  0
   20.1081   -5.5493    0.0000 C   0  0  0  0  0  0  0  0  0  0  0  0
   24.3390   -5.5225    0.0000 C   0  0  0  0  0  0  0  0  0  0  0  0
   19.4091   -6.7771    0.0000 C   0  0  0  0  0  0  0  0  0  0  0  0
   20.1022   -8.0186    0.0000 C   0  0  0  0  0  0  0  0  0  0  0  0
   19.4091   -5.9599    0.0000 C   0  0  0  0  0  0  0  0  0  0  0  0
   20.1081   -4.7183    0.0000 O   0  0  0  0  0  0  0  0  0  0  0  0
   25.0596   -5.9395    0.0000 N   0  0  0  0  0  0  0  0  0  0  0  0
   24.3390   -4.6946    0.0000 O   0  0  0  0  0  0  0  0  0  0  0  0
   18.6971   -7.1878    0.0000 C   0  0  0  0  0  0  0  0  0  0  0  0
   18.6936   -5.5493    0.0000 C   0  0  0  0  0  0  0  0  0  0  0  0
   17.9961   -6.8090    0.0000 C   0  0  0  0  0  0  0  0  0  0  0  0
   17.9961   -5.9599    0.0000 C   0  0  0  0  0  0  0  0  0  0  0  0
   18.6936   -4.7183    0.0000 O   0  0  0  0  0  0  0  0  0  0  0  0
   22.2037   -7.6398    0.0000 H   0  0  0  0  0  0  0  0  0  0  0  0
   20.7916   -7.6399    0.0000 H   0  0  0  0  0  0  0  0  0  0  0  0
  2  3  1  0
  2  4  1  0
  2  5  1  0
  3  6  1  0
  3  7  1  0
  3  8  1  1
  4  9  1  0
  4 10  1  1
  5 11  1  0
  5 12  1  1
  6 13  2  0
  6 14  1  0
  7 15  1  0
  7 16  2  0
  9 17  1  0
 10 18  1  0
 10 19  1  0
 11 20  1  0
 13 21  1  0
 15 22  1  0
 20 23  1  0
 20 24  2  0
 21 25  1  0
 21 26  2  0
 22 27  1  0
 22 28  2  0
 23 29  1  0
 25 30  1  0
 29 31  2  0
 30 32  2  0
 30 33  1  0
  9 15  2  0
 11 13  1  0
 23 25  2  0
 31 32  1  0
  2 34  1  1
 11 35  1  1
M  END
> <chembl_id>
CHEMBL2146123

> <chembl_pref_name>
METHACYCLINE HYDROCHLORIDE

$$$$
CHEMBL485293
     RDKit          2D

 24 27  0  0  0  0  0  0  0  0999 V2000
   -4.0814  -12.9683    0.0000 C   0  0  0  0  0  0  0  0  0  0  0  0
   -4.0825  -13.7950    0.0000 C   0  0  0  0  0  0  0  0  0  0  0  0
   -3.3683  -14.2076    0.0000 C   0  0  0  0  0  0  0  0  0  0  0  0
   -3.3701  -12.5559    0.0000 C   0  0  0  0  0  0  0  0  0  0  0  0
   -2.6553  -12.9647    0.0000 C   0  0  0  0  0  0  0  0  0  0  0  0
   -2.6565  -13.7971    0.0000 C   0  0  0  0  0  0  0  0  0  0  0  0
   -1.9402  -14.2120    0.0000 N   0  0  0  0  0  0  0  0  0  0  0  0
   -1.9378  -12.5473    0.0000 C   0  0  0  0  0  0  0  0  0  0  0  0
   -1.2170  -12.9668    0.0000 C   0  0  0  0  0  0  0  0  0  0  0  0
   -1.2183  -13.7950    0.0000 C   0  0  0  0  0  0  0  0  0  0  0  0
   -0.5028  -14.2085    0.0000 C   0  0  0  0  0  0  0  0  0  0  0  0
    0.2145  -13.7947    0.0000 C   0  0  0  0  0  0  0  0  0  0  0  0
    0.2118  -12.9633    0.0000 C   0  0  0  0  0  0  0  0  0  0  0  0
   -0.5043  -12.5536    0.0000 C   0  0  0  0  0  0  0  0  0  0  0  0
   -1.9378  -11.7229    0.0000 O   0  0  0  0  0  0  0  0  0  0  0  0
   -0.5031  -15.0328    0.0000 C   0  0  0  0  0  0  0  0  0  0  0  0
   -1.2171  -15.4446    0.0000 O   0  0  0  0  0  0  0  0  0  0  0  0
    0.2106  -15.4451    0.0000 N   0  0  0  0  0  0  0  0  0  0  0  0
    0.2103  -16.2695    0.0000 C   0  0  0  0  0  0  0  0  0  0  0  0
   -0.5038  -16.6757    0.0000 C   0  0  0  0  0  0  0  0  0  0  0  0
   -0.5045  -17.4992    0.0000 C   0  0  0  0  0  0  0  0  0  0  0  0
    0.2098  -17.9125    0.0000 C   0  0  0  0  0  0  0  0  0  0  0  0
    0.9262  -17.4962    0.0000 C   0  0  0  0  0  0  0  0  0  0  0  0
    0.9233  -16.6740    0.0000 C   0  0  0  0  0  0  0  0  0  0  0  0
 11 12  2  0
  2  3  1  0
 12 13  1  0
  3  6  2  0
 13 14  2  0
 14  9  1  0
  1  2  2  0
  8 15  2  0
  5  8  1  0
 11 16  1  0
  6  7  1  0
 16 17  2  0
  7 10  1  0
 16 18  1  0
  9  8  1  0
 18 19  1  0
  5  4  2  0
 19 20  2  0
  4  1  1  0
 20 21  1  0
  9 10  2  0
 21 22  2  0
  5  6  1  0
 22 23  1  0
 10 11  1  0
 23 24  2  0
 24 19  1  0
M  END
> <chembl_id>
CHEMBL485293

> <chembl_pref_name>
None

$$$$
CHEMBL498485
     RDKit          2D

 27 29  0  0  0  0  0  0  0  0999 V2000
   -3.7348   -9.9483    0.0000 C   0  0  0  0  0  0  0  0  0  0  0  0
   -3.7495  -10.7758    0.0000 C   0  0  0  0  0  0  0  0  0  0  0  0
   -3.0433  -11.2000    0.0000 C   0  0  0  0  0  0  0  0  0  0  0  0
   -3.0187   -9.5470    0.0000 C   0  0  0  0  0  0  0  0  0  0  0  0
   -2.3071   -9.9673    0.0000 C   0  0  0  0  0  0  0  0  0  0  0  0
   -2.3169  -10.8009    0.0000 C   0  0  0  0  0  0  0  0  0  0  0  0
   -1.6038  -11.2237    0.0000 O   0  0  0  0  0  0  0  0  0  0  0  0
   -0.8765  -10.8177    0.0000 C   0  0  0  0  0  0  0  0  0  0  0  0
   -0.8669   -9.9842    0.0000 C   0  0  0  0  0  0  0  0  0  0  0  0
   -1.5844   -9.5566    0.0000 C   0  0  0  0  0  0  0  0  0  0  0  0
   -0.1457   -9.5807    0.0000 O   0  0  0  0  0  0  0  0  0  0  0  0
   -1.5759   -8.7317    0.0000 O   0  0  0  0  0  0  0  0  0  0  0  0
   -0.1675  -11.2394    0.0000 C   0  0  0  0  0  0  0  0  0  0  0  0
   -0.1830  -12.0648    0.0000 C   0  0  0  0  0  0  0  0  0  0  0  0
    0.5251  -12.4864    0.0000 C   0  0  0  0  0  0  0  0  0  0  0  0
    1.2459  -12.0833    0.0000 C   0  0  0  0  0  0  0  0  0  0  0  0
    1.2540  -11.2542    0.0000 C   0  0  0  0  0  0  0  0  0  0  0  0
    0.5452  -10.8362    0.0000 C   0  0  0  0  0  0  0  0  0  0  0  0
    1.9555  -12.5041    0.0000 O   0  0  0  0  0  0  0  0  0  0  0  0
    1.9458  -13.3290    0.0000 C   0  0  0  0  0  0  0  0  0  0  0  0
   -3.0092   -8.7221    0.0000 O   0  0  0  0  0  0  0  0  0  0  0  0
   -4.4710  -11.1756    0.0000 O   0  0  0  0  0  0  0  0  0  0  0  0
   -3.0592  -12.0249    0.0000 C   0  0  0  0  0  0  0  0  0  0  0  0
   -3.7814  -12.4235    0.0000 C   0  0  0  0  0  0  0  0  0  0  0  0
   -3.7973  -13.2484    0.0000 C   0  0  0  0  0  0  0  0  0  0  0  0
   -4.5195  -13.6470    0.0000 C   0  0  0  0  0  0  0  0  0  0  0  0
   -3.0909  -13.6745    0.0000 C   0  0  0  0  0  0  0  0  0  0  0  0
  8 13  1  0
  3  6  2  0
 13 14  2  0
  1  2  2  0
 14 15  1  0
  5  4  2  0
 15 16  2  0
  4  1  1  0
 16 17  1  0
  5 10  1  0
 17 18  2  0
 18 13  1  0
  6  7  1  0
 16 19  1  0
  7  8  1  0
 19 20  1  0
  8  9  2  0
  4 21  1  0
  9 10  1  0
  2 22  1  0
  5  6  1  0
  3 23  1  0
  9 11  1  0
 23 24  1  0
 24 25  2  0
 10 12  2  0
 25 26  1  0
  2  3  1  0
 25 27  1  0
M  END
> <chembl_id>
CHEMBL498485

> <chembl_pref_name>
ICARITIN

$$$$
CHEMBL4099643
     RDKit          2D

 27 30  0  0  0  0  0  0  0  0999 V2000
    4.5100  -15.0428    0.0000 C   0  0  0  0  0  0  0  0  0  0  0  0
    4.0275  -14.3842    0.0000 C   0  0  0  0  0  0  0  0  0  0  0  0
    4.2743  -13.6044    0.0000 C   0  0  0  0  0  0  0  0  0  0  0  0
    3.6103  -13.1310    0.0000 N   0  0  0  0  0  0  0  0  0  0  0  0
    2.9520  -13.6137    0.0000 C   0  0  0  0  0  0  0  0  0  0  0  0
    3.2104  -14.3883    0.0000 C   0  0  0  0  0  0  0  0  0  0  0  0
    2.1722  -13.3669    0.0000 C   0  0  0  0  0  0  0  0  0  0  0  0
    1.9975  -12.5702    0.0000 C   0  0  0  0  0  0  0  0  0  0  0  0
    1.2177  -12.3234    0.0000 C   0  0  0  0  0  0  0  0  0  0  0  0
    0.6127  -12.8733    0.0000 C   0  0  0  0  0  0  0  0  0  0  0  0
    0.7915  -13.6699    0.0000 C   0  0  0  0  0  0  0  0  0  0  0  0
    1.5672  -13.9208    0.0000 C   0  0  0  0  0  0  0  0  0  0  0  0
    3.6062  -12.3138    0.0000 C   0  0  0  0  0  0  0  0  0  0  0  0
    4.3070  -11.9022    0.0000 C   0  0  0  0  0  0  0  0  0  0  0  0
    4.3029  -11.0851    0.0000 C   0  0  0  0  0  0  0  0  0  0  0  0
    3.5938  -10.6795    0.0000 C   0  0  0  0  0  0  0  0  0  0  0  0
    2.8889  -11.0911    0.0000 C   0  0  0  0  0  0  0  0  0  0  0  0
    2.8930  -11.9083    0.0000 C   0  0  0  0  0  0  0  0  0  0  0  0
    5.0490  -13.3502    0.0000 O   0  0  0  0  0  0  0  0  0  0  0  0
    5.3266  -15.0128    0.0000 C   0  0  0  0  0  0  0  0  0  0  0  0
    5.7566  -15.7082    0.0000 C   0  0  0  0  0  0  0  0  0  0  0  0
    6.5725  -15.6786    0.0000 C   0  0  0  0  0  0  0  0  0  0  0  0
    6.9557  -14.9559    0.0000 C   0  0  0  0  0  0  0  0  0  0  0  0
    6.5169  -14.2614    0.0000 C   0  0  0  0  0  0  0  0  0  0  0  0
    5.7025  -14.2944    0.0000 C   0  0  0  0  0  0  0  0  0  0  0  0
    7.7712  -14.9251    0.0000 O   0  0  0  0  0  0  0  0  0  0  0  0
    8.1526  -14.2024    0.0000 C   0  0  0  0  0  0  0  0  0  0  0  0
  1  2  2  0
  2  3  1  0
  3  4  1  0
  4  5  1  0
  5  6  2  0
  2  6  1  0
  5  7  1  0
  7  8  2  0
  8  9  1  0
  9 10  2  0
 10 11  1  0
 11 12  2  0
  7 12  1  0
  4 13  1  0
 13 14  2  0
 14 15  1  0
 15 16  2  0
 16 17  1  0
 17 18  2  0
 13 18  1  0
  3 19  2  0
  1 20  1  0
 20 21  2  0
 21 22  1  0
 22 23  2  0
 23 24  1  0
 24 25  2  0
 25 20  1  0
 26 27  1  0
 23 26  1  0
M  END
> <chembl_id>
CHEMBL4099643

> <chembl_pref_name>
None

$$$$
CHEMBL1544163
     RDKit          2D

 24 26  0  0  0  0  0  0  0  0999 V2000
   -1.7571    0.0703    0.0000 S   0  0  0  0  0  0  0  0  0  0  0  0
   -1.6515    2.2760    0.0000 S   0  0  0  0  0  0  0  0  0  0  0  0
   -2.5107    0.4058    0.0000 O   0  0  0  0  0  0  0  0  0  0  0  0
   -1.0034   -0.2653    0.0000 O   0  0  0  0  0  0  0  0  0  0  0  0
   -3.7710    2.5309    0.0000 O   0  0  0  0  0  0  0  0  0  0  0  0
   -0.8508    3.6629    0.0000 O   0  0  0  0  0  0  0  0  0  0  0  0
   -3.0993   -2.9444    0.0000 O   0  0  0  0  0  0  0  0  0  0  0  0
   -1.4215    0.8239    0.0000 N   0  0  0  0  0  0  0  0  0  0  0  0
   -2.7314    1.4914    0.0000 N   0  0  0  0  0  0  0  0  0  0  0  0
   -1.9064    1.4914    0.0000 C   0  0  0  0  0  0  0  0  0  0  0  0
   -2.0926   -0.6834    0.0000 C   0  0  0  0  0  0  0  0  0  0  0  0
   -2.3189    2.7609    0.0000 C   0  0  0  0  0  0  0  0  0  0  0  0
   -2.9864    2.2760    0.0000 C   0  0  0  0  0  0  0  0  0  0  0  0
   -2.3189    3.5859    0.0000 C   0  0  0  0  0  0  0  0  0  0  0  0
   -1.6077   -1.3509    0.0000 C   0  0  0  0  0  0  0  0  0  0  0  0
   -2.9131   -0.7697    0.0000 C   0  0  0  0  0  0  0  0  0  0  0  0
   -1.6045    3.9984    0.0000 C   0  0  0  0  0  0  0  0  0  0  0  0
   -2.7637   -2.1908    0.0000 C   0  0  0  0  0  0  0  0  0  0  0  0
   -1.9433   -2.1045    0.0000 C   0  0  0  0  0  0  0  0  0  0  0  0
   -3.2487   -1.5233    0.0000 C   0  0  0  0  0  0  0  0  0  0  0  0
   -1.5182    4.8189    0.0000 C   0  0  0  0  0  0  0  0  0  0  0  0
   -0.2988    4.2760    0.0000 C   0  0  0  0  0  0  0  0  0  0  0  0
   -0.7113    4.9904    0.0000 C   0  0  0  0  0  0  0  0  0  0  0  0
   -2.6144   -3.6119    0.0000 C   0  0  0  0  0  0  0  0  0  0  0  0
  1  3  2  0
  1  4  2  0
  1  8  1  0
  1 11  1  0
  2 10  1  0
  2 12  1  0
  5 13  2  0
  6 17  1  0
  6 22  1  0
  7 18  1  0
  7 24  1  0
  8 10  1  0
  9 10  2  0
  9 13  1  0
 11 15  2  0
 11 16  1  0
 12 13  1  0
 12 14  2  0
 14 17  1  0
 15 19  1  0
 16 20  2  0
 17 21  2  0
 18 19  2  0
 18 20  1  0
 21 23  1  0
 22 23  2  0
M  END
> <chembl_id>
CHEMBL1544163

> <chembl_pref_name>
None

$$$$
CHEMBL43227
     RDKit          2D

 38 43  0  0  0  0  0  0  0  0999 V2000
   11.3292   -4.5417    0.0000 C   0  0  0  0  0  0  0  0  0  0  0  0
    2.0667   -1.6000    0.0000 C   0  0  0  0  0  0  0  0  0  0  0  0
    1.3500   -2.0042    0.0000 N   0  0  0  0  0  0  0  0  0  0  0  0
   11.3292   -5.2667    0.0000 N   0  0  0  0  0  0  0  0  0  0  0  0
   11.9542   -4.1875    0.0000 N   0  0  0  0  0  0  0  0  0  0  0  0
    2.0667   -0.7667    0.0000 N   0  0  0  0  0  0  0  0  0  0  0  0
    0.6417   -0.7667    0.0000 C   0  0  0  0  0  0  0  0  0  0  0  0
   12.5667   -5.2750    0.0000 C   0  0  0  0  0  0  0  0  0  0  0  0
   12.5750   -4.5542    0.0000 C   0  0  0  0  0  0  0  0  0  0  0  0
    1.3542   -0.3625    0.0000 C   0  0  0  0  0  0  0  0  0  0  0  0
    7.7667   -3.2917    0.0000 C   0  0  0  0  0  0  0  0  0  0  0  0
    5.6250   -2.8625    0.0000 C   0  0  0  0  0  0  0  0  0  0  0  0
    2.7750   -2.0167    0.0000 C   0  0  0  0  0  0  0  0  0  0  0  0
   10.6167   -4.1292    0.0000 C   0  0  0  0  0  0  0  0  0  0  0  0
    6.3375   -3.2792    0.0000 C   0  0  0  0  0  0  0  0  0  0  0  0
    7.0542   -2.8667    0.0000 C   0  0  0  0  0  0  0  0  0  0  0  0
    4.9042   -3.2667    0.0000 N   0  0  0  0  0  0  0  0  0  0  0  0
    8.4792   -2.8792    0.0000 N   0  0  0  0  0  0  0  0  0  0  0  0
    7.7625   -4.1167    0.0000 O   0  0  0  0  0  0  0  0  0  0  0  0
    5.6292   -2.0375    0.0000 O   0  0  0  0  0  0  0  0  0  0  0  0
    9.9042   -4.5417    0.0000 C   0  0  0  0  0  0  0  0  0  0  0  0
    2.7667   -2.8417    0.0000 C   0  0  0  0  0  0  0  0  0  0  0  0
    3.4917   -1.6042    0.0000 C   0  0  0  0  0  0  0  0  0  0  0  0
   10.6167   -3.3000    0.0000 C   0  0  0  0  0  0  0  0  0  0  0  0
    9.1917   -3.3000    0.0000 C   0  0  0  0  0  0  0  0  0  0  0  0
    4.1917   -2.8500    0.0000 C   0  0  0  0  0  0  0  0  0  0  0  0
    9.1917   -4.1250    0.0000 C   0  0  0  0  0  0  0  0  0  0  0  0
    4.2000   -2.0167    0.0000 C   0  0  0  0  0  0  0  0  0  0  0  0
    9.9042   -2.8917    0.0000 C   0  0  0  0  0  0  0  0  0  0  0  0
    3.4792   -3.2542    0.0000 C   0  0  0  0  0  0  0  0  0  0  0  0
   13.1875   -5.6375    0.0000 C   0  0  0  0  0  0  0  0  0  0  0  0
   -0.0708   -0.3625    0.0000 C   0  0  0  0  0  0  0  0  0  0  0  0
   13.1917   -4.2042    0.0000 C   0  0  0  0  0  0  0  0  0  0  0  0
    1.3542    0.4708    0.0000 C   0  0  0  0  0  0  0  0  0  0  0  0
   -0.0708    0.4625    0.0000 C   0  0  0  0  0  0  0  0  0  0  0  0
   13.8125   -4.5542    0.0000 C   0  0  0  0  0  0  0  0  0  0  0  0
   13.8125   -5.2792    0.0000 C   0  0  0  0  0  0  0  0  0  0  0  0
    0.6417    0.8833    0.0000 C   0  0  0  0  0  0  0  0  0  0  0  0
  2 13  1  0
  3  2  2  0
  4  1  2  0
  5  1  1  0
  6  2  1  0
  7  3  1  0
  8  4  1  0
  9  5  1  0
 10  6  1  0
 11 18  1  0
 12 15  1  0
 13 22  2  0
 14  1  1  0
 15 16  2  0
 16 11  1  0
 17 12  1  0
 18 25  1  0
 19 11  2  0
 20 12  2  0
 21 14  2  0
 22 30  1  0
 23 28  2  0
 24 14  1  0
 25 29  1  0
 26 17  1  0
 27 21  1  0
 28 26  1  0
 29 24  2  0
 30 26  2  0
 31  8  1  0
 32  7  1  0
 33  9  1  0
 34 10  1  0
 35 32  2  0
 36 33  2  0
 37 31  2  0
 38 34  2  0
  9  8  2  0
 25 27  2  0
 37 36  1  0
 23 13  1  0
 10  7  2  0
 38 35  1  0
M  END
> <chembl_id>
CHEMBL43227

> <chembl_pref_name>
None

$$$$
CHEMBL1811937
     RDKit          2D

 61 66  0  0  0  0  0  0  0  0999 V2000
    9.8979   -7.3350    0.0000 C   0  0  0  0  0  0  0  0  0  0  0  0
   10.7301   -7.3350    0.0000 C   0  0  0  0  0  0  0  0  0  0  0  0
   10.3119   -6.6108    0.0000 C   0  0  0  0  0  0  0  0  0  0  0  0
   10.6974   -8.3783    0.0000 O   0  0  0  0  0  0  0  0  0  0  0  0
    9.8932   -8.1660    0.0000 S   0  0  0  0  0  0  0  0  0  0  0  0
   10.1077   -8.9697    0.0000 O   0  0  0  0  0  0  0  0  0  0  0  0
    7.0492   -4.8778    0.0000 O   0  0  0  0  0  0  0  0  0  0  0  0
    6.3364   -4.4607    0.0000 C   0  0  0  0  0  0  0  0  0  0  0  0
    4.9167   -3.6327    0.0000 N   0  0  0  0  0  0  0  0  0  0  0  0
    4.9149   -4.4617    0.0000 C   0  0  0  0  0  0  0  0  0  0  0  0
    5.6310   -4.8695    0.0000 C   0  0  0  0  0  0  0  0  0  0  0  0
    5.6344   -3.2206    0.0000 C   0  0  0  0  0  0  0  0  0  0  0  0
    6.3452   -3.6324    0.0000 C   0  0  0  0  0  0  0  0  0  0  0  0
    7.0507   -3.2279    0.0000 C   0  0  0  0  0  0  0  0  0  0  0  0
    7.0559   -2.4048    0.0000 C   0  0  0  0  0  0  0  0  0  0  0  0
    6.3433   -1.9954    0.0000 C   0  0  0  0  0  0  0  0  0  0  0  0
    5.6375   -2.4017    0.0000 C   0  0  0  0  0  0  0  0  0  0  0  0
    6.3410   -1.1718    0.0000 O   0  0  0  0  0  0  0  0  0  0  0  0
    7.0540   -0.7580    0.0000 C   0  0  0  0  0  0  0  0  0  0  0  0
    4.2040   -4.8734    0.0000 C   0  0  0  0  0  0  0  0  0  0  0  0
    3.4904   -4.4562    0.0000 C   0  0  0  0  0  0  0  0  0  0  0  0
    2.7764   -4.8728    0.0000 C   0  0  0  0  0  0  0  0  0  0  0  0
    2.7754   -5.6921    0.0000 C   0  0  0  0  0  0  0  0  0  0  0  0
    3.4917   -6.1034    0.0000 C   0  0  0  0  0  0  0  0  0  0  0  0
    4.2051   -5.6941    0.0000 C   0  0  0  0  0  0  0  0  0  0  0  0
    7.0462   -5.7056    0.0000 C   0  0  0  0  0  0  0  0  0  0  0  0
    6.3259   -6.1086    0.0000 C   0  0  0  0  0  0  0  0  0  0  0  0
    6.3263   -6.9303    0.0000 C   0  0  0  0  0  0  0  0  0  0  0  0
    7.0380   -7.3458    0.0000 C   0  0  0  0  0  0  0  0  0  0  0  0
    7.7527   -6.9320    0.0000 C   0  0  0  0  0  0  0  0  0  0  0  0
    7.7547   -6.1133    0.0000 C   0  0  0  0  0  0  0  0  0  0  0  0
    7.0312   -8.1694    0.0000 C   0  0  0  0  0  0  0  0  0  0  0  0
    5.6091   -8.1794    0.0000 C   0  0  0  0  0  0  0  0  0  0  0  0
    4.8970   -8.5852    0.0000 C   0  0  0  0  0  0  0  0  0  0  0  0
    5.6118   -7.3557    0.0000 O   0  0  0  0  0  0  0  0  0  0  0  0
    4.8902   -9.4131    0.0000 C   0  0  0  0  0  0  0  0  0  0  0  0
    4.1758   -9.8253    0.0000 C   0  0  0  0  0  0  0  0  0  0  0  0
    5.6018   -9.8266    0.0000 C   0  0  0  0  0  0  0  0  0  0  0  0
    4.8844  -10.2390    0.0000 C   0  0  0  0  0  0  0  0  0  0  0  0
    7.7428   -8.5872    0.0000 C   0  0  0  0  0  0  0  0  0  0  0  0
    8.4613   -8.1749    0.0000 O   0  0  0  0  0  0  0  0  0  0  0  0
    8.4540   -9.8285    0.0000 C   0  0  0  0  0  0  0  0  0  0  0  0
    8.4513  -10.6521    0.0000 C   0  0  0  0  0  0  0  0  0  0  0  0
    9.1725   -9.4163    0.0000 C   0  0  0  0  0  0  0  0  0  0  0  0
    9.1693  -11.0698    0.0000 C   0  0  0  0  0  0  0  0  0  0  0  0
    9.1625  -11.8934    0.0000 C   0  0  0  0  0  0  0  0  0  0  0  0
    9.8933   -9.8316    0.0000 O   0  0  0  0  0  0  0  0  0  0  0  0
    9.1787   -6.9127    0.0000 C   0  0  0  0  0  0  0  0  0  0  0  0
    9.1792   -6.0806    0.0000 C   0  0  0  0  0  0  0  0  0  0  0  0
    8.4304   -5.6009    0.0000 C   0  0  0  0  0  0  0  0  0  0  0  0
    3.4604   -8.5799    0.0000 C   0  0  0  0  0  0  0  0  0  0  0  0
    3.4616   -9.4103    0.0000 O   0  0  0  0  0  0  0  0  0  0  0  0
    2.7361   -8.1629    0.0000 O   0  0  0  0  0  0  0  0  0  0  0  0
    2.0077   -8.5811    0.0000 C   0  0  0  0  0  0  0  0  0  0  0  0
    1.2864   -8.1631    0.0000 C   0  0  0  0  0  0  0  0  0  0  0  0
    2.0078   -9.4061    0.0000 C   0  0  0  0  0  0  0  0  0  0  0  0
    1.2908   -9.0032    0.0000 C   0  0  0  0  0  0  0  0  0  0  0  0
    6.3231   -8.5928    0.0000 N   0  0  0  0  0  0  0  0  0  0  0  0
    4.1802   -8.1767    0.0000 N   0  0  0  0  0  0  0  0  0  0  0  0
    7.7418   -9.4122    0.0000 N   0  0  0  0  0  0  0  0  0  0  0  0
    9.1863   -8.5914    0.0000 N   0  0  0  0  0  0  0  0  0  0  0  0
  5  4  2  0
  6  5  2  0
  7  8  1  0
  8 13  2  0
 12  9  2  0
  9 10  1  0
 10 11  2  0
 11  8  1  0
 12 13  1  0
 13 14  1  0
 14 15  2  0
 15 16  1  0
 16 17  2  0
 17 12  1  0
 16 18  1  0
 18 19  1  0
 10 20  1  0
 20 21  2  0
 21 22  1  0
 22 23  2  0
 23 24  1  0
 24 25  2  0
 25 20  1  0
  7 26  1  0
 26 27  2  0
 27 28  1  0
 28 29  2  0
 29 30  1  0
 30 31  2  0
 31 26  1  0
 32 29  1  0
 33 34  1  0
 33 35  2  0
 34 36  1  6
 36 37  1  0
 36 38  1  0
 36 39  1  0
 32 40  1  0
 40 41  2  0
 42 43  1  6
 42 44  1  0
 43 45  1  0
 45 46  1  0
 44 47  2  0
  5  1  1  0
  1 48  1  0
 48 49  1  0
 31 50  1  0
 50 49  2  0
 51 52  2  0
 51 53  1  0
 53 54  1  0
 54 55  1  0
 54 56  1  0
 54 57  1  0
  2  1  1  0
  3  2  1  0
  1  3  1  0
 34 59  1  0
 59 51  1  0
 32 58  1  6
 58 33  1  0
 40 60  1  0
 60 42  1  0
 44 61  1  0
 61  5  1  0
M  END
> <chembl_id>
CHEMBL1811937

> <chembl_pref_name>
None

$$$$
CHEMBL3120364
     RDKit          2D

 25 27  0  0  0  0  0  0  0  0999 V2000
    4.5509  -11.2797    0.0000 C   0  0  0  0  0  0  0  0  0  0  0  0
    4.5498  -12.0951    0.0000 C   0  0  0  0  0  0  0  0  0  0  0  0
    5.2619  -12.5041    0.0000 C   0  0  0  0  0  0  0  0  0  0  0  0
    5.2602  -10.8708    0.0000 C   0  0  0  0  0  0  0  0  0  0  0  0
    5.9646  -11.2761    0.0000 C   0  0  0  0  0  0  0  0  0  0  0  0
    5.9649  -12.0951    0.0000 C   0  0  0  0  0  0  0  0  0  0  0  0
    6.7437  -12.3452    0.0000 N   0  0  0  0  0  0  0  0  0  0  0  0
    7.2192  -11.6914    0.0000 C   0  0  0  0  0  0  0  0  0  0  0  0
    6.7433  -11.0257    0.0000 C   0  0  0  0  0  0  0  0  0  0  0  0
    6.9956  -10.2443    0.0000 C   0  0  0  0  0  0  0  0  0  0  0  0
    7.7908  -10.0741    0.0000 C   0  0  0  0  0  0  0  0  0  0  0  0
    8.0430   -9.2968    0.0000 O   0  0  0  0  0  0  0  0  0  0  0  0
    8.3378  -10.6812    0.0000 O   0  0  0  0  0  0  0  0  0  0  0  0
    6.9924  -13.1264    0.0000 C   0  0  0  0  0  0  0  0  0  0  0  0
    7.7912  -13.3005    0.0000 C   0  0  0  0  0  0  0  0  0  0  0  0
    8.0420  -14.0746    0.0000 C   0  0  0  0  0  0  0  0  0  0  0  0
    8.8369  -14.2479    0.0000 C   0  0  0  0  0  0  0  0  0  0  0  0
    9.3866  -13.6475    0.0000 C   0  0  0  0  0  0  0  0  0  0  0  0
    9.1341  -12.8662    0.0000 C   0  0  0  0  0  0  0  0  0  0  0  0
    8.3398  -12.6916    0.0000 C   0  0  0  0  0  0  0  0  0  0  0  0
    7.4933  -14.6802    0.0000 O   0  0  0  0  0  0  0  0  0  0  0  0
    6.6945  -14.5079    0.0000 C   0  0  0  0  0  0  0  0  0  0  0  0
    9.6867  -12.2590    0.0000 N   0  0  0  0  0  0  0  0  0  0  0  0
    9.4375  -11.4807    0.0000 O   0  0  0  0  0  0  0  0  0  0  0  0
   10.4853  -12.4323    0.0000 O   0  0  0  0  0  0  0  0  0  0  0  0
  1  2  2  0
  2  3  1  0
  3  6  2  0
  5  4  2  0
  4  1  1  0
  5  6  1  0
  6  7  1  0
  7  8  1  0
  8  9  2  0
  9  5  1  0
  9 10  1  0
 10 11  1  0
 11 12  2  0
 11 13  1  0
  7 14  1  0
 14 15  1  0
 15 16  2  0
 16 17  1  0
 17 18  2  0
 18 19  1  0
 19 20  2  0
 20 15  1  0
 16 21  1  0
 21 22  1  0
 23 24  2  0
 23 25  1  0
 19 23  1  0
M  CHG  2  23   1  25  -1
M  END
> <chembl_id>
CHEMBL3120364

> <chembl_pref_name>
None

$$$$
CHEMBL4068187
     RDKit          2D

 40 44  0  0  0  0  0  0  0  0999 V2000
   20.7476  -11.0156    0.0000 O   0  0  0  0  0  0  0  0  0  0  0  0
   20.3431  -10.3098    0.0000 S   0  0  0  0  0  0  0  0  0  0  0  0
   19.9341  -11.0130    0.0000 O   0  0  0  0  0  0  0  0  0  0  0  0
   28.4201   -7.9697    0.0000 O   0  0  0  0  0  0  0  0  0  0  0  0
   28.8328   -8.6796    0.0000 S   0  0  0  0  0  0  0  0  0  0  0  0
   29.2412   -7.9672    0.0000 O   0  0  0  0  0  0  0  0  0  0  0  0
   23.8843   -9.0799    0.0000 C   0  0  0  0  0  0  0  0  0  0  0  0
   23.8843   -9.8971    0.0000 N   0  0  0  0  0  0  0  0  0  0  0  0
   24.5896  -10.3016    0.0000 C   0  0  0  0  0  0  0  0  0  0  0  0
   25.2948   -9.8971    0.0000 C   0  0  0  0  0  0  0  0  0  0  0  0
   25.2948   -9.0799    0.0000 N   0  0  0  0  0  0  0  0  0  0  0  0
   24.5896   -8.6672    0.0000 C   0  0  0  0  0  0  0  0  0  0  0  0
   26.0037   -8.6734    0.0000 C   0  0  0  0  0  0  0  0  0  0  0  0
   26.7102   -9.0841    0.0000 C   0  0  0  0  0  0  0  0  0  0  0  0
   27.4191   -8.6775    0.0000 C   0  0  0  0  0  0  0  0  0  0  0  0
   28.1257   -9.0882    0.0000 N   0  0  0  0  0  0  0  0  0  0  0  0
   29.5411   -9.0923    0.0000 C   0  0  0  0  0  0  0  0  0  0  0  0
   30.9490   -9.9145    0.0000 C   0  0  0  0  0  0  0  0  0  0  0  0
   30.9488   -9.0931    0.0000 C   0  0  0  0  0  0  0  0  0  0  0  0
   30.2425   -8.6862    0.0000 C   0  0  0  0  0  0  0  0  0  0  0  0
   23.1772  -10.3067    0.0000 C   0  0  0  0  0  0  0  0  0  0  0  0
   22.4689   -9.8991    0.0000 C   0  0  0  0  0  0  0  0  0  0  0  0
   21.7617  -10.3088    0.0000 C   0  0  0  0  0  0  0  0  0  0  0  0
   21.0534   -9.9012    0.0000 N   0  0  0  0  0  0  0  0  0  0  0  0
   19.6380   -9.9033    0.0000 C   0  0  0  0  0  0  0  0  0  0  0  0
   18.2228   -9.0892    0.0000 C   0  0  0  0  0  0  0  0  0  0  0  0
   18.2273   -9.9106    0.0000 C   0  0  0  0  0  0  0  0  0  0  0  0
   18.9324  -10.3144    0.0000 C   0  0  0  0  0  0  0  0  0  0  0  0
   30.2391  -10.3211    0.0000 C   0  0  0  0  0  0  0  0  0  0  0  0
   29.5367   -9.9106    0.0000 C   0  0  0  0  0  0  0  0  0  0  0  0
   28.8321  -10.3137    0.0000 N   0  0  0  0  0  0  0  0  0  0  0  0
   28.8287  -11.1270    0.0000 C   0  0  0  0  0  0  0  0  0  0  0  0
   29.5358  -11.5356    0.0000 C   0  0  0  0  0  0  0  0  0  0  0  0
   30.2375  -11.1303    0.0000 C   0  0  0  0  0  0  0  0  0  0  0  0
   18.9287   -8.6795    0.0000 C   0  0  0  0  0  0  0  0  0  0  0  0
   19.6349   -9.0879    0.0000 C   0  0  0  0  0  0  0  0  0  0  0  0
   20.3395   -8.6805    0.0000 N   0  0  0  0  0  0  0  0  0  0  0  0
   20.3391   -7.8650    0.0000 C   0  0  0  0  0  0  0  0  0  0  0  0
   19.6282   -7.4586    0.0000 C   0  0  0  0  0  0  0  0  0  0  0  0
   18.9265   -7.8682    0.0000 C   0  0  0  0  0  0  0  0  0  0  0  0
  2  1  2  0
  3  2  2  0
  5  4  2  0
  6  5  2  0
  7  8  1  0
  7 12  1  0
  8  9  1  0
  9 10  1  0
 10 11  1  0
 11 12  1  0
 11 13  1  0
 13 14  1  0
 14 15  1  0
 15 16  1  0
 16  5  1  0
  5 17  1  0
 17 30  2  0
 29 18  2  0
 18 19  1  0
 19 20  2  0
 20 17  1  0
  8 21  1  0
 21 22  1  0
 22 23  1  0
 23 24  1  0
 24  2  1  0
  2 25  1  0
 25 36  2  0
 35 26  2  0
 26 27  1  0
 27 28  2  0
 28 25  1  0
 29 30  1  0
 30 31  1  0
 31 32  2  0
 32 33  1  0
 33 34  2  0
 34 29  1  0
 35 36  1  0
 36 37  1  0
 37 38  2  0
 38 39  1  0
 39 40  2  0
 40 35  1  0
M  END
> <chembl_id>
CHEMBL4068187

> <chembl_pref_name>
None

$$$$
CHEMBL4465365
     RDKit          2D

 17 19  0  0  0  0  0  0  0  0999 V2000
   14.8111   -2.0216    0.0000 N   0  0  0  0  0  0  0  0  0  0  0  0
   14.1481   -1.5395    0.0000 N   0  0  0  0  0  0  0  0  0  0  0  0
   13.4894   -2.0216    0.0000 C   0  0  0  0  0  0  0  0  0  0  0  0
   14.5567   -2.7983    0.0000 C   0  0  0  0  0  0  0  0  0  0  0  0
   13.7395   -2.7983    0.0000 N   0  0  0  0  0  0  0  0  0  0  0  0
   13.4869   -3.5755    0.0000 N   0  0  0  0  0  0  0  0  0  0  0  0
   14.1481   -4.0559    0.0000 C   0  0  0  0  0  0  0  0  0  0  0  0
   14.8092   -3.5755    0.0000 S   0  0  0  0  0  0  0  0  0  0  0  0
   14.1481   -4.8731    0.0000 C   0  0  0  0  0  0  0  0  0  0  0  0
   13.4407   -5.2784    0.0000 C   0  0  0  0  0  0  0  0  0  0  0  0
   13.4404   -6.0948    0.0000 C   0  0  0  0  0  0  0  0  0  0  0  0
   14.1486   -6.5042    0.0000 C   0  0  0  0  0  0  0  0  0  0  0  0
   14.8587   -6.0912    0.0000 C   0  0  0  0  0  0  0  0  0  0  0  0
   14.8555   -5.2761    0.0000 C   0  0  0  0  0  0  0  0  0  0  0  0
   15.5612   -4.8641    0.0000 N   0  0  0  0  0  0  0  0  0  0  0  0
   16.2709   -5.2693    0.0000 C   0  0  0  0  0  0  0  0  0  0  0  0
   15.5573   -4.0469    0.0000 C   0  0  0  0  0  0  0  0  0  0  0  0
  4  1  2  0
  1  2  1  0
  2  3  2  0
  3  5  1  0
  4  5  1  0
  5  6  1  0
  6  7  2  0
  7  8  1  0
  8  4  1  0
  7  9  1  0
  9 10  2  0
 10 11  1  0
 11 12  2  0
 12 13  1  0
 13 14  2  0
 14  9  1  0
 14 15  1  0
 15 16  1  0
 15 17  1  0
M  END
> <chembl_id>
CHEMBL4465365

> <chembl_pref_name>
None

$$$$
CHEMBL250450
     RDKit          2D

 33 36  0  0  0  0  0  0  0  0999 V2000
    1.1786    9.3991    0.0000 C   0  0  0  0  0  0  0  0  0  0  0  0
    0.4641    8.9866    0.0000 C   0  0  0  0  0  0  0  0  0  0  0  0
    0.4641    8.1616    0.0000 C   0  0  0  0  0  0  0  0  0  0  0  0
    1.1786    7.7491    0.0000 C   0  0  0  0  0  0  0  0  0  0  0  0
    1.8931    8.1616    0.0000 C   0  0  0  0  0  0  0  0  0  0  0  0
    1.8931    8.9866    0.0000 C   0  0  0  0  0  0  0  0  0  0  0  0
    2.6076    9.3991    0.0000 O   0  0  0  0  0  0  0  0  0  0  0  0
    3.3220    8.9866    0.0000 C   0  0  0  0  0  0  0  0  0  0  0  0
    3.3220    8.1616    0.0000 C   0  0  0  0  0  0  0  0  0  0  0  0
    2.6076    7.7491    0.0000 C   0  0  0  0  0  0  0  0  0  0  0  0
    4.0365    9.3992    0.0000 C   0  0  0  0  0  0  0  0  0  0  0  0
    4.7510    8.9866    0.0000 C   0  0  0  0  0  0  0  0  0  0  0  0
    5.4655    9.3991    0.0000 C   0  0  0  0  0  0  0  0  0  0  0  0
    5.4654   10.2242    0.0000 C   0  0  0  0  0  0  0  0  0  0  0  0
    4.7509   10.6367    0.0000 C   0  0  0  0  0  0  0  0  0  0  0  0
    4.0365   10.2242    0.0000 C   0  0  0  0  0  0  0  0  0  0  0  0
    2.6076    6.9241    0.0000 O   0  0  0  0  0  0  0  0  0  0  0  0
    1.1786    6.9241    0.0000 O   0  0  0  0  0  0  0  0  0  0  0  0
   -0.2504    9.3991    0.0000 O   0  0  0  0  0  0  0  0  0  0  0  0
    4.9868    5.9518    0.0000 C   0  0  0  0  0  0  0  0  0  0  0  0
    4.2723    6.3643    0.0000 O   0  0  0  0  0  0  0  0  0  0  0  0
    3.5578    5.9518    0.0000 C   0  0  0  0  0  0  0  0  0  0  0  0
    3.5578    5.1268    0.0000 C   0  0  0  0  0  0  0  0  0  0  0  0
    4.2723    4.7143    0.0000 C   0  0  0  0  0  0  0  0  0  0  0  0
    4.9868    5.1268    0.0000 C   0  0  0  0  0  0  0  0  0  0  0  0
    2.8434    6.3643    0.0000 C   0  0  0  0  0  0  0  0  0  0  0  0
    2.1289    5.9518    0.0000 O   0  0  0  0  0  0  0  0  0  0  0  0
    2.8434    4.7143    0.0000 O   0  0  0  0  0  0  0  0  0  0  0  0
    4.2723    3.8893    0.0000 O   0  0  0  0  0  0  0  0  0  0  0  0
    5.7013    4.7143    0.0000 O   0  0  0  0  0  0  0  0  0  0  0  0
    5.5834    6.9536    0.0000 O   0  0  0  0  0  0  0  0  0  0  0  0
    4.7509   11.4617    0.0000 O   0  0  0  0  0  0  0  0  0  0  0  0
    6.1799   10.6367    0.0000 O   0  0  0  0  0  0  0  0  0  0  0  0
  1  2  1  0
  1  6  2  0
  2  3  2  0
  3  4  1  0
  4  5  2  0
 10  5  1  0
  5  6  1  0
  6  7  1  0
  7  8  1  0
  8  9  2  0
  9 10  1  0
  8 11  1  0
 11 12  1  0
 11 16  2  0
 12 13  2  0
 13 14  1  0
 14 15  2  0
 15 16  1  0
 10 17  2  0
  4 18  1  0
  2 19  1  0
 20 21  1  0
 25 20  1  0
 21 22  1  0
 22 23  1  0
 23 24  1  0
 24 25  1  0
 22 26  1  1
 26 27  1  0
 23 28  1  6
 24 29  1  1
 25 30  1  6
 20 31  1  1
  9 31  1  0
 15 32  1  0
 14 33  1  0
M  END
> <chembl_id>
CHEMBL250450

> <chembl_pref_name>
ISOQUERCETIN

$$$$
CHEMBL4093709
     RDKit          2D

 38 41  0  0  0  0  0  0  0  0999 V2000
    4.1644   -8.0233    0.0000 O   0  0  0  0  0  0  0  0  0  0  0  0
    4.5771   -8.7332    0.0000 S   0  0  0  0  0  0  0  0  0  0  0  0
    4.9855   -8.0208    0.0000 O   0  0  0  0  0  0  0  0  0  0  0  0
   13.4671  -11.0692    0.0000 O   0  0  0  0  0  0  0  0  0  0  0  0
   13.0627  -10.3635    0.0000 S   0  0  0  0  0  0  0  0  0  0  0  0
   12.6537  -11.0666    0.0000 O   0  0  0  0  0  0  0  0  0  0  0  0
    8.1183   -9.1336    0.0000 N   0  0  0  0  0  0  0  0  0  0  0  0
    8.1183   -9.9507    0.0000 C   0  0  0  0  0  0  0  0  0  0  0  0
    8.8235  -10.3552    0.0000 C   0  0  0  0  0  0  0  0  0  0  0  0
    9.5288   -9.9507    0.0000 N   0  0  0  0  0  0  0  0  0  0  0  0
    9.5288   -9.1336    0.0000 C   0  0  0  0  0  0  0  0  0  0  0  0
    8.8235   -8.7208    0.0000 C   0  0  0  0  0  0  0  0  0  0  0  0
   10.2359  -10.3604    0.0000 C   0  0  0  0  0  0  0  0  0  0  0  0
   10.9442   -9.9528    0.0000 C   0  0  0  0  0  0  0  0  0  0  0  0
   11.6513  -10.3624    0.0000 C   0  0  0  0  0  0  0  0  0  0  0  0
   12.3596   -9.9549    0.0000 N   0  0  0  0  0  0  0  0  0  0  0  0
   13.7751   -9.9569    0.0000 C   0  0  0  0  0  0  0  0  0  0  0  0
    7.4094   -8.7270    0.0000 C   0  0  0  0  0  0  0  0  0  0  0  0
    6.7028   -9.1377    0.0000 C   0  0  0  0  0  0  0  0  0  0  0  0
    5.9939   -8.7312    0.0000 C   0  0  0  0  0  0  0  0  0  0  0  0
    5.2874   -9.1419    0.0000 N   0  0  0  0  0  0  0  0  0  0  0  0
    3.8720   -9.1460    0.0000 C   0  0  0  0  0  0  0  0  0  0  0  0
    3.1640   -8.7360    0.0000 C   0  0  0  0  0  0  0  0  0  0  0  0
    2.4579   -9.1460    0.0000 C   0  0  0  0  0  0  0  0  0  0  0  0
    2.4599   -9.9640    0.0000 C   0  0  0  0  0  0  0  0  0  0  0  0
    3.1738  -10.3704    0.0000 C   0  0  0  0  0  0  0  0  0  0  0  0
    3.8769   -9.9581    0.0000 C   0  0  0  0  0  0  0  0  0  0  0  0
   14.4787  -10.3706    0.0000 C   0  0  0  0  0  0  0  0  0  0  0  0
   15.1865   -9.9637    0.0000 C   0  0  0  0  0  0  0  0  0  0  0  0
   15.1882   -9.1456    0.0000 C   0  0  0  0  0  0  0  0  0  0  0  0
   14.4761   -8.7362    0.0000 C   0  0  0  0  0  0  0  0  0  0  0  0
   13.7712   -9.1454    0.0000 C   0  0  0  0  0  0  0  0  0  0  0  0
    1.7559  -10.3801    0.0000 C   0  0  0  0  0  0  0  0  0  0  0  0
    1.0462   -9.9728    0.0000 C   0  0  0  0  0  0  0  0  0  0  0  0
    0.3407  -10.3837    0.0000 C   0  0  0  0  0  0  0  0  0  0  0  0
    0.3438  -11.2018    0.0000 C   0  0  0  0  0  0  0  0  0  0  0  0
    1.0582  -11.6072    0.0000 C   0  0  0  0  0  0  0  0  0  0  0  0
    1.7607  -11.1939    0.0000 C   0  0  0  0  0  0  0  0  0  0  0  0
  2  1  2  0
  3  2  2  0
  5  4  2  0
  6  5  2  0
  7  8  1  0
  7 12  1  0
  8  9  1  0
  9 10  1  0
 10 11  1  0
 11 12  1  0
 10 13  1  0
 13 14  1  0
 14 15  1  0
 15 16  1  0
 16  5  1  0
  5 17  1  0
  7 18  1  0
 18 19  1  0
 19 20  1  0
 20 21  1  0
 21  2  1  0
  2 22  1  0
 22 23  2  0
 23 24  1  0
 24 25  2  0
 25 26  1  0
 26 27  2  0
 27 22  1  0
 17 28  2  0
 28 29  1  0
 29 30  2  0
 30 31  1  0
 31 32  2  0
 32 17  1  0
 33 34  2  0
 34 35  1  0
 35 36  2  0
 36 37  1  0
 37 38  2  0
 38 33  1  0
 25 33  1  0
M  END
> <chembl_id>
CHEMBL4093709

> <chembl_pref_name>
None

$$$$
CHEMBL4443851
     RDKit          2D

 24 27  0  0  0  0  0  0  0  0999 V2000
   13.4164   -6.2425    0.0000 S   0  0  0  0  0  0  0  0  0  0  0  0
   13.9152   -5.5951    0.0000 C   0  0  0  0  0  0  0  0  0  0  0  0
   13.4510   -4.9195    0.0000 N   0  0  0  0  0  0  0  0  0  0  0  0
   12.6460   -5.9700    0.0000 C   0  0  0  0  0  0  0  0  0  0  0  0
   12.6692   -5.1554    0.0000 C   0  0  0  0  0  0  0  0  0  0  0  0
   11.9764   -4.7298    0.0000 C   0  0  0  0  0  0  0  0  0  0  0  0
   11.2599   -5.1177    0.0000 C   0  0  0  0  0  0  0  0  0  0  0  0
   11.2406   -5.9355    0.0000 N   0  0  0  0  0  0  0  0  0  0  0  0
   11.9341   -6.3574    0.0000 C   0  0  0  0  0  0  0  0  0  0  0  0
   14.7289   -5.6188    0.0000 C   0  0  0  0  0  0  0  0  0  0  0  0
   15.1175   -6.3390    0.0000 C   0  0  0  0  0  0  0  0  0  0  0  0
   15.9336   -6.3616    0.0000 C   0  0  0  0  0  0  0  0  0  0  0  0
   16.3621   -5.6648    0.0000 C   0  0  0  0  0  0  0  0  0  0  0  0
   15.9686   -4.9437    0.0000 C   0  0  0  0  0  0  0  0  0  0  0  0
   15.1538   -4.9246    0.0000 C   0  0  0  0  0  0  0  0  0  0  0  0
   14.7627   -4.2071    0.0000 O   0  0  0  0  0  0  0  0  0  0  0  0
   15.1885   -3.5097    0.0000 C   0  0  0  0  0  0  0  0  0  0  0  0
   14.7973   -2.7921    0.0000 C   0  0  0  0  0  0  0  0  0  0  0  0
   15.2232   -2.0947    0.0000 C   0  0  0  0  0  0  0  0  0  0  0  0
   16.0386   -2.1187    0.0000 C   0  0  0  0  0  0  0  0  0  0  0  0
   16.4642   -1.4253    0.0000 C   0  0  0  0  0  0  0  0  0  0  0  0
   16.0766   -0.7055    0.0000 O   0  0  0  0  0  0  0  0  0  0  0  0
   15.2588   -0.6835    0.0000 C   0  0  0  0  0  0  0  0  0  0  0  0
   14.8285   -1.3813    0.0000 C   0  0  0  0  0  0  0  0  0  0  0  0
  4  1  1  0
  1  2  1  0
  2  3  2  0
  3  5  1  0
  4  5  2  0
  5  6  1  0
  6  7  2  0
  7  8  1  0
  8  9  2  0
  9  4  1  0
 10 11  2  0
 11 12  1  0
 12 13  2  0
 13 14  1  0
 14 15  2  0
 15 10  1  0
  2 10  1  0
 15 16  1  0
 16 17  1  0
 17 18  1  0
 18 19  1  0
 19 20  1  0
 19 24  1  0
 20 21  1  0
 21 22  1  0
 22 23  1  0
 23 24  1  0
M  END
> <chembl_id>
CHEMBL4443851

> <chembl_pref_name>
None

$$$$
CHEMBL4078074
     RDKit          2D

 39 41  0  0  0  0  0  0  0  0999 V2000
   30.3788  -14.0831    0.0000 O   0  0  0  0  0  0  0  0  0  0  0  0
   30.7955  -14.7998    0.0000 S   0  0  0  0  0  0  0  0  0  0  0  0
   31.2079  -14.0806    0.0000 O   0  0  0  0  0  0  0  0  0  0  0  0
   22.5248  -12.8540    0.0000 O   0  0  0  0  0  0  0  0  0  0  0  0
   22.9414  -13.5707    0.0000 S   0  0  0  0  0  0  0  0  0  0  0  0
   23.3537  -12.8515    0.0000 O   0  0  0  0  0  0  0  0  0  0  0  0
   26.5164  -13.9748    0.0000 N   0  0  0  0  0  0  0  0  0  0  0  0
   26.5164  -14.7998    0.0000 C   0  0  0  0  0  0  0  0  0  0  0  0
   27.2284  -15.2082    0.0000 C   0  0  0  0  0  0  0  0  0  0  0  0
   27.9404  -14.7998    0.0000 N   0  0  0  0  0  0  0  0  0  0  0  0
   27.9404  -13.9748    0.0000 C   0  0  0  0  0  0  0  0  0  0  0  0
   27.2284  -13.5582    0.0000 C   0  0  0  0  0  0  0  0  0  0  0  0
   25.8007  -13.5644    0.0000 C   0  0  0  0  0  0  0  0  0  0  0  0
   25.0875  -13.9791    0.0000 C   0  0  0  0  0  0  0  0  0  0  0  0
   24.3718  -13.5687    0.0000 C   0  0  0  0  0  0  0  0  0  0  0  0
   23.6586  -13.9832    0.0000 N   0  0  0  0  0  0  0  0  0  0  0  0
   22.2296  -13.9874    0.0000 C   0  0  0  0  0  0  0  0  0  0  0  0
   28.6543  -15.2133    0.0000 C   0  0  0  0  0  0  0  0  0  0  0  0
   29.3694  -14.8019    0.0000 C   0  0  0  0  0  0  0  0  0  0  0  0
   30.0832  -15.2155    0.0000 N   0  0  0  0  0  0  0  0  0  0  0  0
   31.5121  -15.2175    0.0000 C   0  0  0  0  0  0  0  0  0  0  0  0
   21.5148  -13.5735    0.0000 C   0  0  0  0  0  0  0  0  0  0  0  0
   20.8021  -13.9873    0.0000 C   0  0  0  0  0  0  0  0  0  0  0  0
   20.8040  -14.8133    0.0000 C   0  0  0  0  0  0  0  0  0  0  0  0
   21.5247  -15.2235    0.0000 C   0  0  0  0  0  0  0  0  0  0  0  0
   22.2345  -14.8072    0.0000 C   0  0  0  0  0  0  0  0  0  0  0  0
   31.5082  -16.0426    0.0000 C   0  0  0  0  0  0  0  0  0  0  0  0
   32.2212  -16.4560    0.0000 C   0  0  0  0  0  0  0  0  0  0  0  0
   32.9373  -16.0445    0.0000 C   0  0  0  0  0  0  0  0  0  0  0  0
   32.9358  -15.2153    0.0000 C   0  0  0  0  0  0  0  0  0  0  0  0
   32.2221  -14.8055    0.0000 C   0  0  0  0  0  0  0  0  0  0  0  0
   20.0914  -15.2288    0.0000 C   0  0  0  0  0  0  0  0  0  0  0  0
   19.3751  -14.8193    0.0000 C   0  0  0  0  0  0  0  0  0  0  0  0
   20.0948  -16.0538    0.0000 C   0  0  0  0  0  0  0  0  0  0  0  0
   19.4998  -15.8082    0.0000 C   0  0  0  0  0  0  0  0  0  0  0  0
   33.6517  -16.4571    0.0000 C   0  0  0  0  0  0  0  0  0  0  0  0
   33.6516  -17.2821    0.0000 C   0  0  0  0  0  0  0  0  0  0  0  0
   34.3662  -16.0447    0.0000 C   0  0  0  0  0  0  0  0  0  0  0  0
   34.3622  -16.8665    0.0000 C   0  0  0  0  0  0  0  0  0  0  0  0
  2  1  2  0
  3  2  2  0
  5  4  2  0
  6  5  2  0
  7  8  1  0
  7 12  1  0
  8  9  1  0
  9 10  1  0
 10 11  1  0
 11 12  1  0
  7 13  1  0
 13 14  1  0
 14 15  1  0
 15 16  1  0
 16  5  1  0
  5 17  1  0
 10 18  1  0
 18 19  1  0
 19 20  1  0
 20  2  1  0
  2 21  1  0
 17 22  2  0
 22 23  1  0
 23 24  2  0
 24 25  1  0
 25 26  2  0
 26 17  1  0
 21 27  2  0
 27 28  1  0
 28 29  2  0
 29 30  1  0
 30 31  2  0
 31 21  1  0
 24 32  1  0
 32 33  1  0
 32 34  1  0
 32 35  1  0
 29 36  1  0
 36 37  1  0
 36 38  1  0
 36 39  1  0
M  END
> <chembl_id>
CHEMBL4078074

> <chembl_pref_name>
None

$$$$
CHEMBL1771798
     RDKit          2D

 25 27  0  0  0  0  0  0  0  0999 V2000
   -1.9389  -18.4083    0.0000 C   0  0  0  0  0  0  0  0  0  0  0  0
   -1.9401  -19.2357    0.0000 C   0  0  0  0  0  0  0  0  0  0  0  0
   -1.2253  -19.6485    0.0000 C   0  0  0  0  0  0  0  0  0  0  0  0
   -1.2271  -17.9955    0.0000 C   0  0  0  0  0  0  0  0  0  0  0  0
   -0.5117  -18.4047    0.0000 C   0  0  0  0  0  0  0  0  0  0  0  0
   -0.5129  -19.2377    0.0000 C   0  0  0  0  0  0  0  0  0  0  0  0
    0.2040  -19.6530    0.0000 N   0  0  0  0  0  0  0  0  0  0  0  0
    0.9267  -19.2398    0.0000 C   0  0  0  0  0  0  0  0  0  0  0  0
    0.9279  -18.4067    0.0000 C   0  0  0  0  0  0  0  0  0  0  0  0
    0.2064  -17.9869    0.0000 C   0  0  0  0  0  0  0  0  0  0  0  0
    1.6400  -19.6543    0.0000 C   0  0  0  0  0  0  0  0  0  0  0  0
   -2.6549  -19.6476    0.0000 O   0  0  0  0  0  0  0  0  0  0  0  0
   -3.3690  -19.2345    0.0000 C   0  0  0  0  0  0  0  0  0  0  0  0
   -4.0838  -19.6465    0.0000 C   0  0  0  0  0  0  0  0  0  0  0  0
    0.2064  -17.1619    0.0000 N   0  0  0  0  0  0  0  0  0  0  0  0
    0.9209  -16.7494    0.0000 N   0  0  0  0  0  0  0  0  0  0  0  0
    1.6354  -17.1619    0.0000 S   0  0  0  0  0  0  0  0  0  0  0  0
    2.3499  -16.7495    0.0000 C   0  0  0  0  0  0  0  0  0  0  0  0
    1.0458  -17.7417    0.0000 O   0  0  0  0  0  0  0  0  0  0  0  0
    2.0417  -17.8708    0.0000 O   0  0  0  0  0  0  0  0  0  0  0  0
    3.0608  -17.1630    0.0000 N   0  0  0  0  0  0  0  0  0  0  0  0
    3.7748  -16.7512    0.0000 C   0  0  0  0  0  0  0  0  0  0  0  0
    3.7753  -15.9253    0.0000 C   0  0  0  0  0  0  0  0  0  0  0  0
    3.0558  -15.5130    0.0000 C   0  0  0  0  0  0  0  0  0  0  0  0
    2.3447  -15.9271    0.0000 C   0  0  0  0  0  0  0  0  0  0  0  0
  2 12  1  0
  2  3  1  0
 12 13  1  0
  3  6  2  0
 13 14  1  0
  1  2  2  0
 10 15  1  0
  5  4  2  0
 15 16  1  0
  4  1  1  0
 16 17  1  0
  5 10  1  0
 17 18  1  0
  6  7  1  0
 17 19  2  0
  7  8  2  0
 17 20  2  0
  8  9  1  0
 18 21  2  0
  9 10  2  0
 21 22  1  0
  5  6  1  0
 22 23  2  0
  8 11  1  0
 23 24  1  0
 24 25  2  0
 25 18  1  0
M  END
> <chembl_id>
CHEMBL1771798

> <chembl_pref_name>
None

$$$$
CHEMBL3924826
     RDKit          2D

 21 23  0  0  0  0  0  0  0  0999 V2000
   29.0589  -11.6213    0.0000 C   0  0  0  0  0  0  0  0  0  0  0  0
   29.0408  -12.4383    0.0000 C   0  0  0  0  0  0  0  0  0  0  0  0
   28.3290  -12.8317    0.0000 C   0  0  0  0  0  0  0  0  0  0  0  0
   27.6270  -12.4122    0.0000 C   0  0  0  0  0  0  0  0  0  0  0  0
   27.6410  -11.5952    0.0000 C   0  0  0  0  0  0  0  0  0  0  0  0
   28.3569  -11.1977    0.0000 C   0  0  0  0  0  0  0  0  0  0  0  0
   29.7706  -11.2238    0.0000 O   0  0  0  0  0  0  0  0  0  0  0  0
   26.9111  -12.8055    0.0000 O   0  0  0  0  0  0  0  0  0  0  0  0
   29.7427  -12.8578    0.0000 C   0  0  0  0  0  0  0  0  0  0  0  0
   30.4586  -12.4603    0.0000 C   0  0  0  0  0  0  0  0  0  0  0  0
   29.7287  -13.6748    0.0000 N   0  0  0  0  0  0  0  0  0  0  0  0
   29.0128  -14.0723    0.0000 N   0  0  0  0  0  0  0  0  0  0  0  0
   29.6826  -16.1258    0.0000 C   0  0  0  0  0  0  0  0  0  0  0  0
   28.9667  -16.5233    0.0000 N   0  0  0  0  0  0  0  0  0  0  0  0
   28.2689  -16.0997    0.0000 C   0  0  0  0  0  0  0  0  0  0  0  0
   28.2829  -15.2827    0.0000 C   0  0  0  0  0  0  0  0  0  0  0  0
   28.9988  -14.8893    0.0000 C   0  0  0  0  0  0  0  0  0  0  0  0
   29.6966  -15.3088    0.0000 N   0  0  0  0  0  0  0  0  0  0  0  0
   27.5086  -15.0152    0.0000 C   0  0  0  0  0  0  0  0  0  0  0  0
   27.0188  -15.6693    0.0000 C   0  0  0  0  0  0  0  0  0  0  0  0
   27.4850  -16.3372    0.0000 S   0  0  0  0  0  0  0  0  0  0  0  0
  1  2  1  0
  2  3  2  0
  3  4  1  0
  4  5  2  0
  5  6  1  0
  1  6  2  0
  1  7  1  0
  4  8  1  0
  9 10  1  0
 11 12  1  0
 13 14  1  0
 14 15  2  0
 15 16  1  0
 16 17  2  0
 17 18  1  0
 13 18  2  0
 19 20  2  0
 20 21  1  0
 15 21  1  0
 16 19  1  0
 12 17  1  0
  9 11  2  0
  2  9  1  0
M  END
> <chembl_id>
CHEMBL3924826

> <chembl_pref_name>
None

$$$$
CHEMBL4462771
     RDKit          2D

 18 20  0  0  0  0  0  0  0  0999 V2000
   15.1495  -16.7764    0.0000 N   0  0  0  0  0  0  0  0  0  0  0  0
   14.4865  -16.2943    0.0000 N   0  0  0  0  0  0  0  0  0  0  0  0
   13.8278  -16.7764    0.0000 C   0  0  0  0  0  0  0  0  0  0  0  0
   14.8951  -17.5531    0.0000 C   0  0  0  0  0  0  0  0  0  0  0  0
   14.0779  -17.5531    0.0000 N   0  0  0  0  0  0  0  0  0  0  0  0
   13.8254  -18.3303    0.0000 N   0  0  0  0  0  0  0  0  0  0  0  0
   14.4865  -18.8107    0.0000 C   0  0  0  0  0  0  0  0  0  0  0  0
   15.1476  -18.3303    0.0000 S   0  0  0  0  0  0  0  0  0  0  0  0
   14.4866  -19.6279    0.0000 C   0  0  0  0  0  0  0  0  0  0  0  0
   13.7791  -20.0332    0.0000 C   0  0  0  0  0  0  0  0  0  0  0  0
   13.7788  -20.8497    0.0000 C   0  0  0  0  0  0  0  0  0  0  0  0
   14.4871  -21.2590    0.0000 C   0  0  0  0  0  0  0  0  0  0  0  0
   15.1971  -20.8460    0.0000 C   0  0  0  0  0  0  0  0  0  0  0  0
   15.1939  -20.0309    0.0000 C   0  0  0  0  0  0  0  0  0  0  0  0
   15.8997  -19.6190    0.0000 O   0  0  0  0  0  0  0  0  0  0  0  0
   16.6093  -20.0241    0.0000 C   0  0  0  0  0  0  0  0  0  0  0  0
   14.4882  -22.0762    0.0000 O   0  0  0  0  0  0  0  0  0  0  0  0
   13.7811  -22.4858    0.0000 C   0  0  0  0  0  0  0  0  0  0  0  0
  4  1  2  0
  1  2  1  0
  2  3  2  0
  3  5  1  0
  4  5  1  0
  5  6  1  0
  6  7  2  0
  7  8  1  0
  8  4  1  0
  7  9  1  0
  9 10  2  0
 10 11  1  0
 11 12  2  0
 12 13  1  0
 13 14  2  0
 14  9  1  0
 14 15  1  0
 15 16  1  0
 12 17  1  0
 17 18  1  0
M  END
> <chembl_id>
CHEMBL4462771

> <chembl_pref_name>
None

$$$$
CHEMBL168
     RDKit          2D

 36 40  0  0  0  0  0  0  0  0999 V2000
    4.3036  -17.0484    0.0000 O   0  0  0  0  0  0  0  0  0  0  0  0
    5.0142  -15.8132    0.0000 C   0  0  0  0  0  0  0  0  0  0  0  0
    5.0142  -16.6382    0.0000 C   0  0  0  0  0  0  0  0  0  0  0  0
    5.7249  -17.0484    0.0000 C   0  0  0  0  0  0  0  0  0  0  0  0
    5.7249  -15.3983    0.0000 C   0  0  0  0  0  0  0  0  0  0  0  0
    6.4399  -15.8132    0.0000 C   0  0  0  0  0  0  0  0  0  0  0  0
    6.4410  -16.6382    0.0000 C   0  0  0  0  0  0  0  0  0  0  0  0
    7.1521  -17.0475    0.0000 C   0  0  0  0  0  0  0  0  0  0  0  0
    7.8668  -16.6364    0.0000 C   0  0  0  0  0  0  0  0  0  0  0  0
    7.1501  -15.3974    0.0000 C   0  0  0  0  0  0  0  0  0  0  0  0
    7.8661  -15.8144    0.0000 C   0  0  0  0  0  0  0  0  0  0  0  0
    7.8705  -14.1601    0.0000 C   0  0  0  0  0  0  0  0  0  0  0  0
    7.1492  -14.5711    0.0000 C   0  0  0  0  0  0  0  0  0  0  0  0
    8.5865  -14.5770    0.0000 C   0  0  0  0  0  0  0  0  0  0  0  0
    8.5789  -15.4074    0.0000 C   0  0  0  0  0  0  0  0  0  0  0  0
    9.2902  -15.8268    0.0000 C   0  0  0  0  0  0  0  0  0  0  0  0
   10.0138  -15.4206    0.0000 C   0  0  0  0  0  0  0  0  0  0  0  0
    9.3055  -14.1662    0.0000 C   0  0  0  0  0  0  0  0  0  0  0  0
   10.0213  -14.5927    0.0000 C   0  0  0  0  0  0  0  0  0  0  0  0
   10.7446  -14.1881    0.0000 C   0  0  0  0  0  0  0  0  0  0  0  0
   10.7582  -13.3556    0.0000 C   0  0  0  0  0  0  0  0  0  0  0  0
   10.0424  -12.9292    0.0000 C   0  0  0  0  0  0  0  0  0  0  0  0
    9.3128  -13.3353    0.0000 C   0  0  0  0  0  0  0  0  0  0  0  0
    6.4320  -14.9926    0.0000 C   0  0  0  0  0  0  0  0  0  0  0  0
    7.8587  -14.9926    0.0000 C   0  0  0  0  0  0  0  0  0  0  0  0
    9.2992  -14.9835    0.0000 H   0  0  0  0  0  0  0  0  0  0  0  0
   10.7260  -15.0017    0.0000 C   0  0  0  0  0  0  0  0  0  0  0  0
   10.7261  -15.8152    0.0000 O   0  0  0  0  0  0  0  0  0  0  0  0
   11.4347  -14.5949    0.0000 O   0  0  0  0  0  0  0  0  0  0  0  0
    6.4320  -17.4542    0.0000 H   0  0  0  0  0  0  0  0  0  0  0  0
    7.1431  -16.2142    0.0000 H   0  0  0  0  0  0  0  0  0  0  0  0
    8.5698  -16.2234    0.0000 C   0  0  0  0  0  0  0  0  0  0  0  0
    5.0097  -17.4542    0.0000 C   0  0  0  0  0  0  0  0  0  0  0  0
    5.7162  -17.8689    0.0000 C   0  0  0  0  0  0  0  0  0  0  0  0
    9.3311  -12.5174    0.0000 C   0  0  0  0  0  0  0  0  0  0  0  0
   10.7520  -12.5173    0.0000 C   0  0  0  0  0  0  0  0  0  0  0  0
 16 17  1  0
 17 19  1  0
 18 19  1  0
  6 10  1  0
  7  8  1  0
  8  9  1  0
  9 11  1  0
 10 11  1  0
  3  4  1  0
 18 23  1  0
 19 20  1  0
 20 21  1  0
 21 22  1  0
 22 23  1  0
  3  1  1  1
  4  7  1  0
  6 24  1  1
  6  5  1  0
 11 25  1  1
  6  7  1  0
 18 26  1  1
 10 13  1  0
 19 27  1  1
 11 15  1  0
 14 12  2  0
 27 28  1  0
 27 29  2  0
 12 13  1  0
  7 30  1  6
 14 15  1  0
 10 31  1  6
 15 32  1  6
  2  3  1  0
  4 33  1  0
  4 34  1  0
  2  5  1  0
 22 35  1  0
 14 18  1  0
 22 36  1  0
 15 16  1  0
M  END
> <chembl_id>
CHEMBL168

> <chembl_pref_name>
OLEANOLIC_ACID

$$$$
CHEMBL4082513
     RDKit          2D

 36 38  0  0  0  0  0  0  0  0999 V2000
   29.0309  -11.1848    0.0000 O   0  0  0  0  0  0  0  0  0  0  0  0
   28.6265  -10.4790    0.0000 S   0  0  0  0  0  0  0  0  0  0  0  0
   28.2175  -11.1822    0.0000 O   0  0  0  0  0  0  0  0  0  0  0  0
   19.7282   -8.1389    0.0000 O   0  0  0  0  0  0  0  0  0  0  0  0
   20.1409   -8.8488    0.0000 S   0  0  0  0  0  0  0  0  0  0  0  0
   20.5493   -8.1364    0.0000 O   0  0  0  0  0  0  0  0  0  0  0  0
   23.6820   -9.2491    0.0000 N   0  0  0  0  0  0  0  0  0  0  0  0
   23.6820  -10.0663    0.0000 C   0  0  0  0  0  0  0  0  0  0  0  0
   24.3873  -10.4708    0.0000 C   0  0  0  0  0  0  0  0  0  0  0  0
   25.0926  -10.0663    0.0000 N   0  0  0  0  0  0  0  0  0  0  0  0
   25.0926   -9.2491    0.0000 C   0  0  0  0  0  0  0  0  0  0  0  0
   24.3873   -8.8364    0.0000 C   0  0  0  0  0  0  0  0  0  0  0  0
   25.7997  -10.4759    0.0000 C   0  0  0  0  0  0  0  0  0  0  0  0
   25.7985  -11.2931    0.0000 O   0  0  0  0  0  0  0  0  0  0  0  0
   26.5080  -10.0684    0.0000 C   0  0  0  0  0  0  0  0  0  0  0  0
   27.2151  -10.4780    0.0000 C   0  0  0  0  0  0  0  0  0  0  0  0
   27.9234  -10.0704    0.0000 N   0  0  0  0  0  0  0  0  0  0  0  0
   22.9731   -8.8426    0.0000 C   0  0  0  0  0  0  0  0  0  0  0  0
   22.9707   -8.0254    0.0000 O   0  0  0  0  0  0  0  0  0  0  0  0
   22.2666   -9.2533    0.0000 C   0  0  0  0  0  0  0  0  0  0  0  0
   21.5577   -8.8467    0.0000 C   0  0  0  0  0  0  0  0  0  0  0  0
   20.8512   -9.2574    0.0000 N   0  0  0  0  0  0  0  0  0  0  0  0
   19.4358   -9.2616    0.0000 C   0  0  0  0  0  0  0  0  0  0  0  0
   29.3388  -10.0725    0.0000 C   0  0  0  0  0  0  0  0  0  0  0  0
   18.7266   -8.8539    0.0000 C   0  0  0  0  0  0  0  0  0  0  0  0
   18.0220   -9.2660    0.0000 C   0  0  0  0  0  0  0  0  0  0  0  0
   18.0265  -10.0838    0.0000 C   0  0  0  0  0  0  0  0  0  0  0  0
   18.7415  -10.4879    0.0000 C   0  0  0  0  0  0  0  0  0  0  0  0
   19.4432  -10.0734    0.0000 C   0  0  0  0  0  0  0  0  0  0  0  0
   30.0436  -10.4902    0.0000 C   0  0  0  0  0  0  0  0  0  0  0  0
   30.7555  -10.0843    0.0000 C   0  0  0  0  0  0  0  0  0  0  0  0
   30.7601   -9.2632    0.0000 C   0  0  0  0  0  0  0  0  0  0  0  0
   30.0468   -8.8497    0.0000 C   0  0  0  0  0  0  0  0  0  0  0  0
   29.3378   -9.2579    0.0000 C   0  0  0  0  0  0  0  0  0  0  0  0
   17.3219  -10.4976    0.0000 Cl  0  0  0  0  0  0  0  0  0  0  0  0
   31.4693   -8.8572    0.0000 Cl  0  0  0  0  0  0  0  0  0  0  0  0
  2  1  2  0
  3  2  2  0
  5  4  2  0
  6  5  2  0
  7  8  1  0
  7 12  1  0
  8  9  1  0
  9 10  1  0
 10 11  1  0
 11 12  1  0
 10 13  1  0
 13 14  2  0
 13 15  1  0
 15 16  1  0
 16 17  1  0
  7 18  1  0
 18 19  2  0
 18 20  1  0
 20 21  1  0
 21 22  1  0
 22  5  1  0
 17  2  1  0
  5 23  1  0
  2 24  1  0
 23 25  2  0
 25 26  1  0
 26 27  2  0
 27 28  1  0
 28 29  2  0
 29 23  1  0
 24 30  2  0
 30 31  1  0
 31 32  2  0
 32 33  1  0
 33 34  2  0
 34 24  1  0
 27 35  1  0
 32 36  1  0
M  END
> <chembl_id>
CHEMBL4082513

> <chembl_pref_name>
None

$$$$
CHEMBL3040216
     RDKit          2D

 86 93  0  0  0  0  0  0  0  0999 V2000
   15.0644  -16.8804    0.0000 S   0  0  0  0  0  0  0  0  0  0  0  0
    6.6242  -16.8267    0.0000 S   0  0  0  0  0  0  0  0  0  0  0  0
   13.8551  -14.0904    0.0000 S   0  0  0  0  0  0  0  0  0  0  0  0
    5.4108  -14.0491    0.0000 S   0  0  0  0  0  0  0  0  0  0  0  0
    6.6242  -16.1292    0.0000 C   0  0  0  0  0  0  0  0  0  0  0  0
   15.0603  -16.1829    0.0000 C   0  0  0  0  0  0  0  0  0  0  0  0
    7.8128  -14.7260    0.0000 S   0  0  0  0  0  0  0  0  0  0  0  0
   16.2572  -14.7837    0.0000 S   0  0  0  0  0  0  0  0  0  0  0  0
   14.4577  -15.8362    0.0000 C   0  0  0  0  0  0  0  0  0  0  0  0
    6.0175  -15.7866    0.0000 C   0  0  0  0  0  0  0  0  0  0  0  0
   13.8551  -14.7879    0.0000 C   0  0  0  0  0  0  0  0  0  0  0  0
    5.4108  -14.7425    0.0000 C   0  0  0  0  0  0  0  0  0  0  0  0
   14.4577  -15.1387    0.0000 C   0  0  0  0  0  0  0  0  0  0  0  0
    6.0092  -15.0891    0.0000 C   0  0  0  0  0  0  0  0  0  0  0  0
   13.8551  -16.1705    0.0000 C   0  0  0  0  0  0  0  0  0  0  0  0
    5.4108  -16.1292    0.0000 C   0  0  0  0  0  0  0  0  0  0  0  0
   13.8551  -16.8680    0.0000 N   0  0  0  0  0  0  0  0  0  0  0  0
    5.4149  -16.8267    0.0000 N   0  0  0  0  0  0  0  0  0  0  0  0
   15.6587  -15.1345    0.0000 C   0  0  0  0  0  0  0  0  0  0  0  0
    7.2103  -15.0850    0.0000 C   0  0  0  0  0  0  0  0  0  0  0  0
    5.4191  -18.9275    0.0000 C   0  0  0  0  0  0  0  0  0  0  0  0
    6.0216  -19.2700    0.0000 N   0  0  0  0  0  0  0  0  0  0  0  0
   12.0350  -19.2989    0.0000 N   0  0  0  0  0  0  0  0  0  0  0  0
    7.2227  -15.7784    0.0000 C   0  0  0  0  0  0  0  0  0  0  0  0
   15.6628  -15.8279    0.0000 C   0  0  0  0  0  0  0  0  0  0  0  0
    4.8082  -17.1817    0.0000 C   0  0  0  0  0  0  0  0  0  0  0  0
   13.2484  -17.2147    0.0000 C   0  0  0  0  0  0  0  0  0  0  0  0
   12.6417  -18.9564    0.0000 C   0  0  0  0  0  0  0  0  0  0  0  0
    6.0175  -19.9675    0.0000 C   0  0  0  0  0  0  0  0  0  0  0  0
   12.0350  -19.9923    0.0000 C   0  0  0  0  0  0  0  0  0  0  0  0
    9.0262  -20.3266    0.0000 C   0  0  0  0  0  0  0  0  0  0  0  0
    4.8123  -17.8709    0.0000 C   0  0  0  0  0  0  0  0  0  0  0  0
   13.2443  -17.9122    0.0000 C   0  0  0  0  0  0  0  0  0  0  0  0
    5.4191  -18.2217    0.0000 C   0  0  0  0  0  0  0  0  0  0  0  0
    6.6036  -14.7425    0.0000 C   0  0  0  0  0  0  0  0  0  0  0  0
   15.0603  -14.7879    0.0000 C   0  0  0  0  0  0  0  0  0  0  0  0
   13.2525  -15.1387    0.0000 C   0  0  0  0  0  0  0  0  0  0  0  0
    4.8082  -15.0974    0.0000 C   0  0  0  0  0  0  0  0  0  0  0  0
   11.4283  -20.3431    0.0000 C   0  0  0  0  0  0  0  0  0  0  0  0
    6.6201  -20.3183    0.0000 C   0  0  0  0  0  0  0  0  0  0  0  0
    8.4237  -19.9799    0.0000 N   0  0  0  0  0  0  0  0  0  0  0  0
    9.6288  -19.9799    0.0000 N   0  0  0  0  0  0  0  0  0  0  0  0
    4.8082  -19.2700    0.0000 C   0  0  0  0  0  0  0  0  0  0  0  0
   13.2401  -19.3030    0.0000 C   0  0  0  0  0  0  0  0  0  0  0  0
   13.8469  -18.2630    0.0000 C   0  0  0  0  0  0  0  0  0  0  0  0
   13.8469  -18.9646    0.0000 C   0  0  0  0  0  0  0  0  0  0  0  0
   12.6417  -18.2630    0.0000 C   0  0  0  0  0  0  0  0  0  0  0  0
    4.2180  -18.9151    0.0000 C   0  0  0  0  0  0  0  0  0  0  0  0
    7.8170  -20.3225    0.0000 C   0  0  0  0  0  0  0  0  0  0  0  0
   10.2273  -20.3390    0.0000 C   0  0  0  0  0  0  0  0  0  0  0  0
   13.2484  -15.8279    0.0000 C   0  0  0  0  0  0  0  0  0  0  0  0
    4.8082  -15.7949    0.0000 C   0  0  0  0  0  0  0  0  0  0  0  0
    6.0216  -16.4842    0.0000 O   0  0  0  0  0  0  0  0  0  0  0  0
   14.8787  -17.5572    0.0000 O   0  0  0  0  0  0  0  0  0  0  0  0
   14.4577  -16.5337    0.0000 O   0  0  0  0  0  0  0  0  0  0  0  0
    6.2693  -17.4293    0.0000 O   0  0  0  0  0  0  0  0  0  0  0  0
   14.2018  -13.4960    0.0000 O   0  0  0  0  0  0  0  0  0  0  0  0
    6.0092  -14.4040    0.0000 O   0  0  0  0  0  0  0  0  0  0  0  0
    5.7451  -13.4506    0.0000 O   0  0  0  0  0  0  0  0  0  0  0  0
   14.4536  -14.4412    0.0000 O   0  0  0  0  0  0  0  0  0  0  0  0
   16.6080  -15.3822    0.0000 O   0  0  0  0  0  0  0  0  0  0  0  0
   16.8597  -14.4370    0.0000 O   0  0  0  0  0  0  0  0  0  0  0  0
    8.1471  -15.3327    0.0000 O   0  0  0  0  0  0  0  0  0  0  0  0
    8.4113  -14.3793    0.0000 O   0  0  0  0  0  0  0  0  0  0  0  0
   10.8298  -19.9882    0.0000 C   0  0  0  0  0  0  0  0  0  0  0  0
    7.2227  -19.9717    0.0000 C   0  0  0  0  0  0  0  0  0  0  0  0
    4.2180  -18.2217    0.0000 C   0  0  0  0  0  0  0  0  0  0  0  0
   11.4283  -21.0324    0.0000 C   0  0  0  0  0  0  0  0  0  0  0  0
    6.6118  -21.0117    0.0000 C   0  0  0  0  0  0  0  0  0  0  0  0
   10.8175  -21.3790    0.0000 C   0  0  0  0  0  0  0  0  0  0  0  0
    7.2061  -21.3625    0.0000 C   0  0  0  0  0  0  0  0  0  0  0  0
    9.0221  -21.0241    0.0000 O   0  0  0  0  0  0  0  0  0  0  0  0
   12.6376  -20.3472    0.0000 O   0  0  0  0  0  0  0  0  0  0  0  0
    5.4108  -20.3142    0.0000 O   0  0  0  0  0  0  0  0  0  0  0  0
   12.6541  -16.8680    0.0000 O   0  0  0  0  0  0  0  0  0  0  0  0
    4.2056  -16.8308    0.0000 O   0  0  0  0  0  0  0  0  0  0  0  0
   10.2273  -21.0324    0.0000 C   0  0  0  0  0  0  0  0  0  0  0  0
    7.8128  -21.0200    0.0000 C   0  0  0  0  0  0  0  0  0  0  0  0
   15.6628  -17.2271    0.0000 O   0  0  0  0  0  0  0  0  0  0  0  0
    7.2309  -17.1734    0.0000 O   0  0  0  0  0  0  0  0  0  0  0  0
   13.2525  -13.7437    0.0000 O   0  0  0  0  0  0  0  0  0  0  0  0
    4.8041  -13.7065    0.0000 O   0  0  0  0  0  0  0  0  0  0  0  0
   16.2572  -14.0862    0.0000 O   0  0  0  0  0  0  0  0  0  0  0  0
    7.8046  -14.0326    0.0000 O   0  0  0  0  0  0  0  0  0  0  0  0
    4.8082  -19.9675    0.0000 C   0  0  0  0  0  0  0  0  0  0  0  0
   13.2319  -19.9964    0.0000 C   0  0  0  0  0  0  0  0  0  0  0  0
  2  5  1  0
  3 11  1  0
  4 12  1  0
  5 10  1  0
  6  1  1  0
  7 20  1  0
  8 19  1  0
  9  6  2  0
 10 16  1  0
 11 13  1  0
 12 38  2  0
 13  9  1  0
 14 10  2  0
 15  9  1  0
 16 18  2  0
 17 15  2  0
 18 26  1  0
 19 25  2  0
 20 35  2  0
 21 22  2  0
 22 29  1  0
 23 28  2  0
 24  5  2  0
 25  6  1  0
 26 32  1  0
 27 17  1  0
 28 47  1  0
 29 40  1  0
 30 23  1  0
 31 42  1  0
 32 34  2  0
 33 27  1  0
 34 21  1  0
 35 14  1  0
 36 19  1  0
 37 51  1  0
 38 52  1  0
 39 30  1  0
 40 66  1  0
 41 31  1  0
 42 50  2  0
 43 21  1  0
 44 46  2  0
 45 33  2  0
 46 45  1  0
 47 33  1  0
 48 43  2  0
 49 41  2  0
 50 65  1  0
 51 15  1  0
 52 16  1  0
 53  2  2  0
 54  1  2  0
 55  1  2  0
 56  2  2  0
 57  3  2  0
 58  4  2  0
 59  4  2  0
 60  3  2  0
 61  8  2  0
 62  8  2  0
 63  7  2  0
 64  7  2  0
 65 39  1  0
 66 49  1  0
 67 48  1  0
 68 39  2  0
 69 71  1  0
 70 68  1  0
 71 78  2  0
 72 31  2  0
 73 30  2  0
 74 29  2  0
 75 27  2  0
 76 26  2  0
 77 70  2  0
 78 49  1  0
 79  1  1  0
 80  2  1  0
 81  3  1  0
 82  4  1  0
 83  8  1  0
 84  7  1  0
 85 43  1  0
 86 44  1  0
 13 36  2  0
 11 37  2  0
 44 28  1  0
 77 50  1  0
 69 40  2  0
 32 67  1  0
 14 12  1  0
 24 20  1  0
M  END
> <chembl_id>
CHEMBL3040216

> <chembl_pref_name>
None

$$$$
CHEMBL231813
     RDKit          2D

 51 55  0  0  0  0  0  0  0  0999 V2000
   -3.5973   -2.6000    0.0000 C   0  0  0  0  0  0  0  0  0  0  0  0
   -3.5984   -3.4273    0.0000 C   0  0  0  0  0  0  0  0  0  0  0  0
   -2.8836   -3.8402    0.0000 N   0  0  0  0  0  0  0  0  0  0  0  0
   -2.1672   -3.4269    0.0000 C   0  0  0  0  0  0  0  0  0  0  0  0
   -2.1700   -2.5963    0.0000 C   0  0  0  0  0  0  0  0  0  0  0  0
   -2.8854   -2.1872    0.0000 N   0  0  0  0  0  0  0  0  0  0  0  0
   -1.4571   -2.1811    0.0000 C   0  0  0  0  0  0  0  0  0  0  0  0
   -0.7411   -2.5909    0.0000 N   0  0  0  0  0  0  0  0  0  0  0  0
   -1.4602   -1.3561    0.0000 O   0  0  0  0  0  0  0  0  0  0  0  0
   -0.0282   -2.1758    0.0000 C   0  0  0  0  0  0  0  0  0  0  0  0
    0.6878   -2.5856    0.0000 C   0  0  0  0  0  0  0  0  0  0  0  0
   -0.0313   -1.3508    0.0000 C   0  0  0  0  0  0  0  0  0  0  0  0
    0.6878   -0.9369    0.0000 C   0  0  0  0  0  0  0  0  0  0  0  0
    0.6867   -0.1155    0.0000 C   0  0  0  0  0  0  0  0  0  0  0  0
   -0.0275    0.2982    0.0000 C   0  0  0  0  0  0  0  0  0  0  0  0
   -0.7423   -0.1158    0.0000 C   0  0  0  0  0  0  0  0  0  0  0  0
   -0.7428   -0.9434    0.0000 C   0  0  0  0  0  0  0  0  0  0  0  0
    0.6909   -3.4106    0.0000 O   0  0  0  0  0  0  0  0  0  0  0  0
    1.4008   -2.1704    0.0000 N   0  0  0  0  0  0  0  0  0  0  0  0
    2.1168   -2.5802    0.0000 C   0  0  0  0  0  0  0  0  0  0  0  0
    2.8297   -2.1650    0.0000 C   0  0  0  0  0  0  0  0  0  0  0  0
    2.1199   -3.4052    0.0000 C   0  0  0  0  0  0  0  0  0  0  0  0
    1.4070   -3.8204    0.0000 C   0  0  0  0  0  0  0  0  0  0  0  0
    2.8359   -3.8150    0.0000 C   0  0  0  0  0  0  0  0  0  0  0  0
    3.5457   -2.5748    0.0000 O   0  0  0  0  0  0  0  0  0  0  0  0
    2.8266   -1.3400    0.0000 N   0  0  0  0  0  0  0  0  0  0  0  0
    3.4918   -0.8551    0.0000 C   0  0  0  0  0  0  0  0  0  0  0  0
    2.1570   -0.8601    0.0000 C   0  0  0  0  0  0  0  0  0  0  0  0
    2.4089   -0.0745    0.0000 C   0  0  0  0  0  0  0  0  0  0  0  0
    3.2332   -0.0754    0.0000 C   0  0  0  0  0  0  0  0  0  0  0  0
    3.4888    0.7084    0.0000 C   0  0  0  0  0  0  0  0  0  0  0  0
    2.8224    1.1936    0.0000 C   0  0  0  0  0  0  0  0  0  0  0  0
    2.1550    0.7097    0.0000 C   0  0  0  0  0  0  0  0  0  0  0  0
    4.0542   -0.0750    0.0000 H   0  0  0  0  0  0  0  0  0  0  0  0
    1.5833   -0.0708    0.0000 H   0  0  0  0  0  0  0  0  0  0  0  0
    4.2091   -1.2625    0.0000 C   0  0  0  0  0  0  0  0  0  0  0  0
    4.2150   -2.0875    0.0000 O   0  0  0  0  0  0  0  0  0  0  0  0
    4.9205   -0.8449    0.0000 N   0  0  0  0  0  0  0  0  0  0  0  0
    5.6380   -1.2522    0.0000 C   0  0  0  0  0  0  0  0  0  0  0  0
    6.3494   -0.8346    0.0000 C   0  0  0  0  0  0  0  0  0  0  0  0
    5.6439   -2.0772    0.0000 C   0  0  0  0  0  0  0  0  0  0  0  0
    6.3613   -2.4846    0.0000 C   0  0  0  0  0  0  0  0  0  0  0  0
    6.3672   -3.3095    0.0000 C   0  0  0  0  0  0  0  0  0  0  0  0
    6.3435   -0.0096    0.0000 O   0  0  0  0  0  0  0  0  0  0  0  0
    7.0669   -1.2420    0.0000 C   0  0  0  0  0  0  0  0  0  0  0  0
    7.0728   -2.0669    0.0000 O   0  0  0  0  0  0  0  0  0  0  0  0
    7.7784   -0.8243    0.0000 N   0  0  0  0  0  0  0  0  0  0  0  0
    8.4958   -1.2317    0.0000 C   0  0  0  0  0  0  0  0  0  0  0  0
    8.9169   -1.9405    0.0000 C   0  0  0  0  0  0  0  0  0  0  0  0
    9.3242   -1.2231    0.0000 C   0  0  0  0  0  0  0  0  0  0  0  0
    2.1125   -4.2292    0.0000 C   0  0  0  0  0  0  0  0  0  0  0  0
 21 25  2  0
 12 13  1  0
 21 26  1  0
 26 27  1  0
  6  1  1  0
  1  2  2  0
 27 30  1  0
 29 28  1  0
 28 26  1  0
 29 30  1  0
  5  7  1  0
  3  4  2  0
  7  8  1  0
 12 17  1  0
 13 14  1  0
 30 31  1  0
 31 32  1  0
 32 33  1  0
 33 29  1  0
 14 15  1  0
 30 34  1  1
 15 16  1  0
 29 35  1  1
 16 17  1  0
 27 36  1  1
 36 37  2  0
 11 18  2  0
 36 38  1  0
  7  9  2  0
 38 39  1  0
 11 19  1  0
 39 40  1  0
  4  5  1  0
 39 41  1  6
 19 20  1  0
 41 42  1  0
  8 10  1  0
 42 43  1  0
 20 21  1  0
 40 44  2  0
  2  3  1  0
 40 45  1  0
 20 22  1  6
 45 46  2  0
 10 11  1  0
 45 47  1  0
 22 23  1  0
 47 48  1  0
 49 48  1  0
 50 49  1  0
 48 50  1  0
  5  6  2  0
 22 24  1  0
 10 12  1  1
 22 51  1  0
M  END
> <chembl_id>
CHEMBL231813

> <chembl_pref_name>
TELAPREVIR

$$$$
CHEMBL1290131
     RDKit          2D

 33 37  0  0  0  0  0  0  0  0999 V2000
   -1.7675   -0.9999    0.0000 Cl  0  0  0  0  0  0  0  0  0  0  0  0
   -2.9098   -2.5291    0.0000 C   0  0  0  0  0  0  0  0  0  0  0  0
   -2.9109   -3.3565    0.0000 C   0  0  0  0  0  0  0  0  0  0  0  0
   -2.1961   -3.7694    0.0000 C   0  0  0  0  0  0  0  0  0  0  0  0
   -2.1979   -2.1164    0.0000 C   0  0  0  0  0  0  0  0  0  0  0  0
   -0.6926   -3.6119    0.0000 N   0  0  0  0  0  0  0  0  0  0  0  0
   -0.2048   -2.9401    0.0000 C   0  0  0  0  0  0  0  0  0  0  0  0
   -0.6931   -2.2687    0.0000 N   0  0  0  0  0  0  0  0  0  0  0  0
   -1.4825   -2.5255    0.0000 C   0  0  0  0  0  0  0  0  0  0  0  0
   -1.4823   -3.3557    0.0000 C   0  0  0  0  0  0  0  0  0  0  0  0
    0.6183   -2.9382    0.0000 C   0  0  0  0  0  0  0  0  0  0  0  0
    1.0305   -3.6541    0.0000 C   0  0  0  0  0  0  0  0  0  0  0  0
    1.8547   -3.6542    0.0000 C   0  0  0  0  0  0  0  0  0  0  0  0
    1.0277   -2.2258    0.0000 C   0  0  0  0  0  0  0  0  0  0  0  0
    3.0763   -2.7702    0.0000 N   0  0  0  0  0  0  0  0  0  0  0  0
    3.1643   -1.9451    0.0000 C   0  0  0  0  0  0  0  0  0  0  0  0
    2.4067   -1.6065    0.0000 N   0  0  0  0  0  0  0  0  0  0  0  0
    1.8506   -2.2223    0.0000 C   0  0  0  0  0  0  0  0  0  0  0  0
    2.2644   -2.9416    0.0000 C   0  0  0  0  0  0  0  0  0  0  0  0
    3.8783   -1.5349    0.0000 C   0  0  0  0  0  0  0  0  0  0  0  0
    4.5924   -1.9501    0.0000 C   0  0  0  0  0  0  0  0  0  0  0  0
    5.3070   -1.5394    0.0000 C   0  0  0  0  0  0  0  0  0  0  0  0
    5.3087   -0.7135    0.0000 C   0  0  0  0  0  0  0  0  0  0  0  0
    4.5898   -0.3001    0.0000 C   0  0  0  0  0  0  0  0  0  0  0  0
    3.8781   -0.7132    0.0000 C   0  0  0  0  0  0  0  0  0  0  0  0
    6.0232   -0.3011    0.0000 O   0  0  0  0  0  0  0  0  0  0  0  0
   -3.6282   -2.1124    0.0000 N   0  0  0  0  0  0  0  0  0  0  0  0
   -3.6264   -1.2864    0.0000 C   0  0  0  0  0  0  0  0  0  0  0  0
   -4.3368   -0.8742    0.0000 C   0  0  0  0  0  0  0  0  0  0  0  0
   -5.0536   -1.2833    0.0000 N   0  0  0  0  0  0  0  0  0  0  0  0
   -5.0554   -2.1093    0.0000 C   0  0  0  0  0  0  0  0  0  0  0  0
   -4.3404   -2.5261    0.0000 C   0  0  0  0  0  0  0  0  0  0  0  0
   -5.7666   -0.8683    0.0000 C   0  0  0  0  0  0  0  0  0  0  0  0
  7  8  2  0
  2  3  2  0
 15 16  1  0
 17 18  1  0
 19 15  1  0
  3  4  1  0
 20 21  2  0
  6  7  1  0
 21 22  1  0
  8  9  1  0
 22 23  2  0
 10  6  1  0
 23 24  1  0
  4 10  2  0
 24 25  2  0
 25 20  1  0
 16 20  1  0
 23 26  1  0
 27 28  1  0
 11 12  2  0
  9  5  2  0
 12 13  1  0
 13 19  2  0
  5  2  1  0
 18 14  2  0
 27 32  1  0
 28 29  1  0
 29 30  1  0
 30 31  1  0
 31 32  1  0
  2 27  1  0
 14 11  1  0
 30 33  1  0
  7 11  1  0
 18 19  1  0
  9 10  1  0
 16 17  2  0
M  END
> <chembl_id>
CHEMBL1290131

> <chembl_pref_name>
None

$$$$
CHEMBL8260
     RDKit          2D

 20 22  0  0  0  0  0  0  0  0999 V2000
   14.2000   -0.8667    0.0000 C   0  0  0  0  0  0  0  0  0  0  0  0
   14.9208   -1.2792    0.0000 C   0  0  0  0  0  0  0  0  0  0  0  0
   13.4833   -1.2792    0.0000 C   0  0  0  0  0  0  0  0  0  0  0  0
   14.2000   -0.0375    0.0000 C   0  0  0  0  0  0  0  0  0  0  0  0
   15.6375   -0.8625    0.0000 C   0  0  0  0  0  0  0  0  0  0  0  0
   15.6375   -0.0292    0.0000 C   0  0  0  0  0  0  0  0  0  0  0  0
   14.9125    0.3833    0.0000 O   0  0  0  0  0  0  0  0  0  0  0  0
   12.7708   -0.8667    0.0000 C   0  0  0  0  0  0  0  0  0  0  0  0
   13.4833    0.3708    0.0000 C   0  0  0  0  0  0  0  0  0  0  0  0
   12.7708   -0.0417    0.0000 C   0  0  0  0  0  0  0  0  0  0  0  0
   14.9250   -2.1042    0.0000 O   0  0  0  0  0  0  0  0  0  0  0  0
   16.3500    0.3833    0.0000 C   0  0  0  0  0  0  0  0  0  0  0  0
   13.4750   -2.1042    0.0000 O   0  0  0  0  0  0  0  0  0  0  0  0
   12.0583   -1.2792    0.0000 O   0  0  0  0  0  0  0  0  0  0  0  0
   12.0583    0.3708    0.0000 O   0  0  0  0  0  0  0  0  0  0  0  0
   16.3458    1.2083    0.0000 C   0  0  0  0  0  0  0  0  0  0  0  0
   17.0625   -0.0292    0.0000 C   0  0  0  0  0  0  0  0  0  0  0  0
   17.7750    0.3833    0.0000 C   0  0  0  0  0  0  0  0  0  0  0  0
   17.0500    1.6208    0.0000 C   0  0  0  0  0  0  0  0  0  0  0  0
   17.7750    1.2083    0.0000 C   0  0  0  0  0  0  0  0  0  0  0  0
  2  1  1  0
  3  1  2  0
  4  1  1  0
  5  2  1  0
  6  7  1  0
  7  4  1  0
  8  3  1  0
  9  4  2  0
 10  9  1  0
 11  2  2  0
 12  6  1  0
 13  3  1  0
 14  8  1  0
 15 10  1  0
 16 12  1  0
 17 12  2  0
 18 17  1  0
 19 16  2  0
 20 18  2  0
  8 10  2  0
  5  6  2  0
 19 20  1  0
M  END
> <chembl_id>
CHEMBL8260

> <chembl_pref_name>
BAICALEIN

$$$$
CHEMBL169
     RDKit          2D

 36 40  0  0  0  0  0  0  0  0999 V2000
    7.7569  -10.8177    0.0000 C   0  0  0  0  0  0  0  0  0  0  0  0
    7.7569  -11.6444    0.0000 C   0  0  0  0  0  0  0  0  0  0  0  0
    8.4690  -12.0556    0.0000 C   0  0  0  0  0  0  0  0  0  0  0  0
    8.4690  -10.4019    0.0000 C   0  0  0  0  0  0  0  0  0  0  0  0
    9.1857  -10.8177    0.0000 C   0  0  0  0  0  0  0  0  0  0  0  0
    9.1822  -11.6444    0.0000 C   0  0  0  0  0  0  0  0  0  0  0  0
    9.8925  -12.0586    0.0000 C   0  0  0  0  0  0  0  0  0  0  0  0
   10.6110  -11.6506    0.0000 C   0  0  0  0  0  0  0  0  0  0  0  0
    9.8995  -10.4050    0.0000 C   0  0  0  0  0  0  0  0  0  0  0  0
   10.6120  -10.8250    0.0000 C   0  0  0  0  0  0  0  0  0  0  0  0
   10.6255   -9.1740    0.0000 C   0  0  0  0  0  0  0  0  0  0  0  0
    9.9032   -9.5802    0.0000 C   0  0  0  0  0  0  0  0  0  0  0  0
   11.3379   -9.5940    0.0000 C   0  0  0  0  0  0  0  0  0  0  0  0
   11.3247  -10.4201    0.0000 C   0  0  0  0  0  0  0  0  0  0  0  0
   12.0296  -10.8422    0.0000 C   0  0  0  0  0  0  0  0  0  0  0  0
   12.7522  -10.4428    0.0000 C   0  0  0  0  0  0  0  0  0  0  0  0
   12.0559   -9.1900    0.0000 C   0  0  0  0  0  0  0  0  0  0  0  0
   12.7640   -9.6179    0.0000 C   0  0  0  0  0  0  0  0  0  0  0  0
   13.4846   -9.2208    0.0000 C   0  0  0  0  0  0  0  0  0  0  0  0
   13.5033   -8.3943    0.0000 C   0  0  0  0  0  0  0  0  0  0  0  0
   12.7953   -7.9665    0.0000 C   0  0  0  0  0  0  0  0  0  0  0  0
   12.0684   -8.3651    0.0000 C   0  0  0  0  0  0  0  0  0  0  0  0
    7.0448  -12.0556    0.0000 O   0  0  0  0  0  0  0  0  0  0  0  0
    7.8802  -12.6358    0.0000 C   0  0  0  0  0  0  0  0  0  0  0  0
    8.6751  -12.8460    0.0000 C   0  0  0  0  0  0  0  0  0  0  0  0
    9.1776   -9.9954    0.0000 C   0  0  0  0  0  0  0  0  0  0  0  0
    9.1776  -12.4622    0.0000 H   0  0  0  0  0  0  0  0  0  0  0  0
    9.8948  -11.2242    0.0000 H   0  0  0  0  0  0  0  0  0  0  0  0
   10.6029   -9.9999    0.0000 C   0  0  0  0  0  0  0  0  0  0  0  0
   11.3201  -11.2379    0.0000 C   0  0  0  0  0  0  0  0  0  0  0  0
   12.0511  -10.0091    0.0000 H   0  0  0  0  0  0  0  0  0  0  0  0
   11.3641   -7.9409    0.0000 C   0  0  0  0  0  0  0  0  0  0  0  0
   12.8125   -7.1443    0.0000 C   0  0  0  0  0  0  0  0  0  0  0  0
   13.4718  -10.0273    0.0000 C   0  0  0  0  0  0  0  0  0  0  0  0
   13.4711  -10.8496    0.0000 O   0  0  0  0  0  0  0  0  0  0  0  0
   14.1842   -9.6168    0.0000 O   0  0  0  0  0  0  0  0  0  0  0  0
 16 18  1  0
 17 18  1  0
  5  9  1  0
  6  7  1  0
  7  8  1  0
  8 10  1  0
  9 10  1  0
  2  3  1  0
 17 22  1  0
 18 19  1  0
 19 20  1  0
 20 21  1  0
 21 22  1  0
  3  6  1  0
  2 23  1  1
  5  4  1  0
  3 24  1  0
  5  6  1  0
  3 25  1  0
  9 12  1  0
  5 26  1  1
 10 14  1  0
  6 27  1  6
 13 11  2  0
  9 28  1  6
 11 12  1  0
 10 29  1  1
 13 14  1  0
 14 30  1  6
 17 31  1  1
  1  2  1  0
 22 32  1  1
 21 33  1  6
  1  4  1  0
 18 34  1  1
 13 17  1  0
 34 35  2  0
 14 15  1  0
 34 36  1  0
 15 16  1  0
M  END
> <chembl_id>
CHEMBL169

> <chembl_pref_name>
URSOLIC ACID

$$$$
